
*** ChampSim Multicore Out-of-Order Simulator ***

Warmup Instructions: 50000000
Simulation Instructions: 200000000
Number of CPUs: 4
LLC sets: 8192
LLC ways: 16
Off-chip DRAM Size: 4096 MB Channels: 1 Width: 64-bit Data Rate: 6400 MT/s
CPU 0 runs ./traces/spec/607.cactuBSSN_s-3477B.champsimtrace.xz
.xz
CPU 1 runs ./traces/spec/607.cactuBSSN_s-3477B.champsimtrace.xz
.xz
CPU 2 runs ./traces/spec/607.cactuBSSN_s-3477B.champsimtrace.xz
.xz
CPU 3 runs ./traces/spec/607.cactuBSSN_s-3477B.champsimtrace.xz
.xz
BTB has LRU replacement policy
ITLB has LRU replacement policy
DTLB has LRU replacement policy
STLB has LRU replacement policy
L1I has LRU replacement policy
L1D has LRU replacement policy
Initialize SRRIP state for L2C
Initialize DRRIP state for LLC
BTB has LRU replacement policy
ITLB has LRU replacement policy
DTLB has LRU replacement policy
STLB has LRU replacement policy
L1I has LRU replacement policy
L1D has LRU replacement policy
Initialize SRRIP state for L2C
Initialize DRRIP state for LLC
BTB has LRU replacement policy
ITLB has LRU replacement policy
DTLB has LRU replacement policy
STLB has LRU replacement policy
L1I has LRU replacement policy
L1D has LRU replacement policy
Initialize SRRIP state for L2C
Initialize DRRIP state for LLC
BTB has LRU replacement policy
ITLB has LRU replacement policy
DTLB has LRU replacement policy
STLB has LRU replacement policy
L1I has LRU replacement policy
L1D has LRU replacement policy
Initialize SRRIP state for L2C
Initialize DRRIP state for LLC
Heartbeat CPU 0 instructions: 10000000 cycles: 3674291 heartbeat IPC: 2.72161 cumulative IPC: 2.72161 (Simulation time: 0 hr 3 min 30 sec) 
Heartbeat CPU 2 instructions: 10000000 cycles: 3674873 heartbeat IPC: 2.72118 cumulative IPC: 2.72118 (Simulation time: 0 hr 3 min 30 sec) 
Heartbeat CPU 1 instructions: 10000000 cycles: 3675211 heartbeat IPC: 2.72093 cumulative IPC: 2.72093 (Simulation time: 0 hr 3 min 30 sec) 
Heartbeat CPU 3 instructions: 10000000 cycles: 3675296 heartbeat IPC: 2.72087 cumulative IPC: 2.72087 (Simulation time: 0 hr 3 min 30 sec) 
Heartbeat CPU 0 instructions: 20000003 cycles: 7345076 heartbeat IPC: 2.72421 cumulative IPC: 2.72291 (Simulation time: 0 hr 7 min 8 sec) 
Heartbeat CPU 2 instructions: 20000003 cycles: 7345655 heartbeat IPC: 2.72422 cumulative IPC: 2.7227 (Simulation time: 0 hr 7 min 8 sec) 
Heartbeat CPU 1 instructions: 20000003 cycles: 7346148 heartbeat IPC: 2.7241 cumulative IPC: 2.72252 (Simulation time: 0 hr 7 min 8 sec) 
Heartbeat CPU 3 instructions: 20000003 cycles: 7346223 heartbeat IPC: 2.72411 cumulative IPC: 2.72249 (Simulation time: 0 hr 7 min 8 sec) 
Heartbeat CPU 0 instructions: 30000000 cycles: 11015637 heartbeat IPC: 2.72438 cumulative IPC: 2.7234 (Simulation time: 0 hr 10 min 31 sec) 
Heartbeat CPU 2 instructions: 30000000 cycles: 11016111 heartbeat IPC: 2.72446 cumulative IPC: 2.72328 (Simulation time: 0 hr 10 min 31 sec) 
Heartbeat CPU 1 instructions: 30000000 cycles: 11016578 heartbeat IPC: 2.72448 cumulative IPC: 2.72317 (Simulation time: 0 hr 10 min 31 sec) 
Heartbeat CPU 3 instructions: 30000000 cycles: 11017005 heartbeat IPC: 2.72421 cumulative IPC: 2.72306 (Simulation time: 0 hr 10 min 31 sec) 
Heartbeat CPU 0 instructions: 40000003 cycles: 14686095 heartbeat IPC: 2.72446 cumulative IPC: 2.72366 (Simulation time: 0 hr 13 min 52 sec) 
Heartbeat CPU 2 instructions: 40000003 cycles: 14686773 heartbeat IPC: 2.72431 cumulative IPC: 2.72354 (Simulation time: 0 hr 13 min 52 sec) 
Heartbeat CPU 1 instructions: 40000003 cycles: 14686934 heartbeat IPC: 2.72453 cumulative IPC: 2.72351 (Simulation time: 0 hr 13 min 52 sec) 
Heartbeat CPU 3 instructions: 40000003 cycles: 14687620 heartbeat IPC: 2.72434 cumulative IPC: 2.72338 (Simulation time: 0 hr 13 min 52 sec) 
Heartbeat CPU 0 instructions: 50000000 cycles: 18359605 heartbeat IPC: 2.72219 cumulative IPC: 2.72337 (Simulation time: 0 hr 17 min 16 sec) 
Heartbeat CPU 2 instructions: 50000000 cycles: 18360714 heartbeat IPC: 2.72187 cumulative IPC: 2.72321 (Simulation time: 0 hr 17 min 16 sec) 
Heartbeat CPU 1 instructions: 50000000 cycles: 18360723 heartbeat IPC: 2.72198 cumulative IPC: 2.7232 (Simulation time: 0 hr 17 min 16 sec) 
Heartbeat CPU 3 instructions: 50000000 cycles: 18361232 heartbeat IPC: 2.72212 cumulative IPC: 2.72313 (Simulation time: 0 hr 17 min 16 sec) 

Warmup complete CPU 0 instructions: 50004799 cycles: 18361233 (Simulation time: 0 hr 17 min 16 sec) 
Warmup complete CPU 1 instructions: 50001106 cycles: 18361233 (Simulation time: 0 hr 17 min 16 sec) 
Warmup complete CPU 2 instructions: 50001111 cycles: 18361233 (Simulation time: 0 hr 17 min 16 sec) 
Warmup complete CPU 3 instructions: 50000004 cycles: 18361233 (Simulation time: 0 hr 17 min 16 sec) 

Heartbeat CPU 0 instructions: 60000000 cycles: 26162914 heartbeat IPC: 1.28151 cumulative IPC: 1.28116 (Simulation time: 0 hr 20 min 47 sec) 
Heartbeat CPU 1 instructions: 60000000 cycles: 26172745 heartbeat IPC: 1.28008 cumulative IPC: 1.28002 (Simulation time: 0 hr 20 min 47 sec) 
Heartbeat CPU 2 instructions: 60000000 cycles: 26189588 heartbeat IPC: 1.27732 cumulative IPC: 1.27727 (Simulation time: 0 hr 20 min 48 sec) 
Heartbeat CPU 3 instructions: 60000000 cycles: 26208320 heartbeat IPC: 1.27436 cumulative IPC: 1.27436 (Simulation time: 0 hr 20 min 49 sec) 
Heartbeat CPU 0 instructions: 70000001 cycles: 33970836 heartbeat IPC: 1.28075 cumulative IPC: 1.28096 (Simulation time: 0 hr 24 min 8 sec) 
Heartbeat CPU 1 instructions: 70000001 cycles: 33989294 heartbeat IPC: 1.27934 cumulative IPC: 1.27968 (Simulation time: 0 hr 24 min 8 sec) 
Heartbeat CPU 2 instructions: 70000001 cycles: 34022893 heartbeat IPC: 1.2766 cumulative IPC: 1.27693 (Simulation time: 0 hr 24 min 9 sec) 
Heartbeat CPU 3 instructions: 70000001 cycles: 34025456 heartbeat IPC: 1.27924 cumulative IPC: 1.27679 (Simulation time: 0 hr 24 min 9 sec) 
Heartbeat CPU 0 instructions: 80000003 cycles: 41787242 heartbeat IPC: 1.27936 cumulative IPC: 1.28042 (Simulation time: 0 hr 27 min 26 sec) 
Heartbeat CPU 1 instructions: 80000003 cycles: 41791318 heartbeat IPC: 1.28172 cumulative IPC: 1.28036 (Simulation time: 0 hr 27 min 26 sec) 
Heartbeat CPU 3 instructions: 80000003 cycles: 41842921 heartbeat IPC: 1.27919 cumulative IPC: 1.27759 (Simulation time: 0 hr 27 min 27 sec) 
Heartbeat CPU 2 instructions: 80000003 cycles: 41852077 heartbeat IPC: 1.27727 cumulative IPC: 1.27705 (Simulation time: 0 hr 27 min 27 sec) 
Heartbeat CPU 0 instructions: 90000002 cycles: 49592903 heartbeat IPC: 1.28112 cumulative IPC: 1.2806 (Simulation time: 0 hr 30 min 55 sec) 
Heartbeat CPU 1 instructions: 90000000 cycles: 49599197 heartbeat IPC: 1.28076 cumulative IPC: 1.28046 (Simulation time: 0 hr 30 min 55 sec) 
Heartbeat CPU 3 instructions: 90000000 cycles: 49655695 heartbeat IPC: 1.27995 cumulative IPC: 1.27818 (Simulation time: 0 hr 30 min 56 sec) 
Heartbeat CPU 2 instructions: 90000000 cycles: 49676507 heartbeat IPC: 1.27805 cumulative IPC: 1.2773 (Simulation time: 0 hr 30 min 57 sec) 
Heartbeat CPU 0 instructions: 100000000 cycles: 57382514 heartbeat IPC: 1.28376 cumulative IPC: 1.28123 (Simulation time: 0 hr 34 min 30 sec) 
Heartbeat CPU 1 instructions: 100000000 cycles: 57403449 heartbeat IPC: 1.28135 cumulative IPC: 1.28064 (Simulation time: 0 hr 34 min 30 sec) 
Heartbeat CPU 3 instructions: 100000000 cycles: 57444388 heartbeat IPC: 1.28391 cumulative IPC: 1.27932 (Simulation time: 0 hr 34 min 31 sec) 
Heartbeat CPU 2 instructions: 100000000 cycles: 57456452 heartbeat IPC: 1.28536 cumulative IPC: 1.2789 (Simulation time: 0 hr 34 min 31 sec) 
Heartbeat CPU 0 instructions: 110000000 cycles: 65213916 heartbeat IPC: 1.27691 cumulative IPC: 1.28051 (Simulation time: 0 hr 37 min 44 sec) 
Heartbeat CPU 1 instructions: 110000000 cycles: 65236295 heartbeat IPC: 1.27668 cumulative IPC: 1.27997 (Simulation time: 0 hr 37 min 45 sec) 
Heartbeat CPU 3 instructions: 110000000 cycles: 65260079 heartbeat IPC: 1.27948 cumulative IPC: 1.27935 (Simulation time: 0 hr 37 min 45 sec) 
Heartbeat CPU 2 instructions: 110000000 cycles: 65287451 heartbeat IPC: 1.27698 cumulative IPC: 1.27858 (Simulation time: 0 hr 37 min 46 sec) 
Heartbeat CPU 0 instructions: 120000003 cycles: 73031125 heartbeat IPC: 1.27923 cumulative IPC: 1.28032 (Simulation time: 0 hr 40 min 57 sec) 
Heartbeat CPU 1 instructions: 120000003 cycles: 73049964 heartbeat IPC: 1.27981 cumulative IPC: 1.27995 (Simulation time: 0 hr 40 min 57 sec) 
Heartbeat CPU 3 instructions: 120000003 cycles: 73079197 heartbeat IPC: 1.27892 cumulative IPC: 1.27929 (Simulation time: 0 hr 40 min 58 sec) 
Heartbeat CPU 2 instructions: 120000003 cycles: 73118835 heartbeat IPC: 1.27691 cumulative IPC: 1.27834 (Simulation time: 0 hr 40 min 59 sec) 
Heartbeat CPU 0 instructions: 130000002 cycles: 80909794 heartbeat IPC: 1.26925 cumulative IPC: 1.27893 (Simulation time: 0 hr 44 min 7 sec) 
Heartbeat CPU 3 instructions: 130000002 cycles: 80977109 heartbeat IPC: 1.26616 cumulative IPC: 1.27763 (Simulation time: 0 hr 44 min 9 sec) 
Heartbeat CPU 1 instructions: 130000002 cycles: 80982765 heartbeat IPC: 1.26059 cumulative IPC: 1.2775 (Simulation time: 0 hr 44 min 10 sec) 
Heartbeat CPU 2 instructions: 130000002 cycles: 81008448 heartbeat IPC: 1.26749 cumulative IPC: 1.27697 (Simulation time: 0 hr 44 min 10 sec) 
Heartbeat CPU 0 instructions: 140000000 cycles: 88715463 heartbeat IPC: 1.28112 cumulative IPC: 1.27917 (Simulation time: 0 hr 47 min 45 sec) 
Heartbeat CPU 3 instructions: 140000000 cycles: 88771620 heartbeat IPC: 1.28295 cumulative IPC: 1.27822 (Simulation time: 0 hr 47 min 46 sec) 
Heartbeat CPU 1 instructions: 140000000 cycles: 88794054 heartbeat IPC: 1.2802 cumulative IPC: 1.2778 (Simulation time: 0 hr 47 min 47 sec) 
Heartbeat CPU 2 instructions: 140000000 cycles: 88806096 heartbeat IPC: 1.28244 cumulative IPC: 1.27758 (Simulation time: 0 hr 47 min 47 sec) 
Heartbeat CPU 0 instructions: 150000000 cycles: 96499276 heartbeat IPC: 1.28472 cumulative IPC: 1.27972 (Simulation time: 0 hr 51 min 34 sec) 
Heartbeat CPU 3 instructions: 150000000 cycles: 96562563 heartbeat IPC: 1.28354 cumulative IPC: 1.27875 (Simulation time: 0 hr 51 min 35 sec) 
Heartbeat CPU 1 instructions: 150000003 cycles: 96593035 heartbeat IPC: 1.28222 cumulative IPC: 1.27824 (Simulation time: 0 hr 51 min 36 sec) 
Heartbeat CPU 2 instructions: 150000000 cycles: 96620065 heartbeat IPC: 1.27976 cumulative IPC: 1.2778 (Simulation time: 0 hr 51 min 37 sec) 
Heartbeat CPU 0 instructions: 160000001 cycles: 104310760 heartbeat IPC: 1.28017 cumulative IPC: 1.27977 (Simulation time: 0 hr 54 min 57 sec) 
Heartbeat CPU 3 instructions: 160000001 cycles: 104378485 heartbeat IPC: 1.27944 cumulative IPC: 1.27881 (Simulation time: 0 hr 54 min 58 sec) 
Heartbeat CPU 1 instructions: 160000001 cycles: 104396103 heartbeat IPC: 1.28155 cumulative IPC: 1.27854 (Simulation time: 0 hr 54 min 59 sec) 
Heartbeat CPU 2 instructions: 160000001 cycles: 104445458 heartbeat IPC: 1.27789 cumulative IPC: 1.27781 (Simulation time: 0 hr 55 min 0 sec) 
Heartbeat CPU 0 instructions: 170000000 cycles: 112109048 heartbeat IPC: 1.28233 cumulative IPC: 1.27998 (Simulation time: 0 hr 58 min 3 sec) 
Heartbeat CPU 3 instructions: 170000000 cycles: 112187315 heartbeat IPC: 1.2806 cumulative IPC: 1.27896 (Simulation time: 0 hr 58 min 5 sec) 
Heartbeat CPU 1 instructions: 170000000 cycles: 112196765 heartbeat IPC: 1.28194 cumulative IPC: 1.27882 (Simulation time: 0 hr 58 min 5 sec) 
Heartbeat CPU 2 instructions: 170000000 cycles: 112242605 heartbeat IPC: 1.28252 cumulative IPC: 1.2782 (Simulation time: 0 hr 58 min 6 sec) 
Heartbeat CPU 0 instructions: 180000000 cycles: 119913877 heartbeat IPC: 1.28126 cumulative IPC: 1.28008 (Simulation time: 1 hr 1 min 11 sec) 
Heartbeat CPU 3 instructions: 180000000 cycles: 119984100 heartbeat IPC: 1.28258 cumulative IPC: 1.27924 (Simulation time: 1 hr 1 min 13 sec) 
Heartbeat CPU 1 instructions: 180000000 cycles: 120003308 heartbeat IPC: 1.28098 cumulative IPC: 1.27899 (Simulation time: 1 hr 1 min 13 sec) 
Heartbeat CPU 2 instructions: 180000000 cycles: 120039328 heartbeat IPC: 1.28259 cumulative IPC: 1.27853 (Simulation time: 1 hr 1 min 14 sec) 
Heartbeat CPU 0 instructions: 190000000 cycles: 127694466 heartbeat IPC: 1.28525 cumulative IPC: 1.28045 (Simulation time: 1 hr 4 min 24 sec) 
Heartbeat CPU 3 instructions: 190000000 cycles: 127763555 heartbeat IPC: 1.28544 cumulative IPC: 1.27968 (Simulation time: 1 hr 4 min 26 sec) 
Heartbeat CPU 1 instructions: 190000000 cycles: 127815514 heartbeat IPC: 1.28005 cumulative IPC: 1.27906 (Simulation time: 1 hr 4 min 27 sec) 
Heartbeat CPU 2 instructions: 190000000 cycles: 127839139 heartbeat IPC: 1.28208 cumulative IPC: 1.27879 (Simulation time: 1 hr 4 min 28 sec) 
Heartbeat CPU 0 instructions: 200000000 cycles: 135761142 heartbeat IPC: 1.23967 cumulative IPC: 1.27764 (Simulation time: 1 hr 7 min 35 sec) 
Heartbeat CPU 3 instructions: 200000002 cycles: 135842581 heartbeat IPC: 1.23777 cumulative IPC: 1.2768 (Simulation time: 1 hr 7 min 36 sec) 
Heartbeat CPU 1 instructions: 200000001 cycles: 135934571 heartbeat IPC: 1.23167 cumulative IPC: 1.27579 (Simulation time: 1 hr 7 min 39 sec) 
Heartbeat CPU 2 instructions: 200000001 cycles: 135946425 heartbeat IPC: 1.23346 cumulative IPC: 1.27566 (Simulation time: 1 hr 7 min 39 sec) 
Heartbeat CPU 0 instructions: 210000001 cycles: 143564421 heartbeat IPC: 1.28151 cumulative IPC: 1.27788 (Simulation time: 1 hr 10 min 42 sec) 
Heartbeat CPU 3 instructions: 210000001 cycles: 143690846 heartbeat IPC: 1.27417 cumulative IPC: 1.27663 (Simulation time: 1 hr 10 min 45 sec) 
Heartbeat CPU 1 instructions: 210000001 cycles: 143770885 heartbeat IPC: 1.27611 cumulative IPC: 1.27581 (Simulation time: 1 hr 10 min 47 sec) 
Heartbeat CPU 2 instructions: 210000001 cycles: 143782915 heartbeat IPC: 1.27608 cumulative IPC: 1.27569 (Simulation time: 1 hr 10 min 47 sec) 
Heartbeat CPU 0 instructions: 220000000 cycles: 151364973 heartbeat IPC: 1.28196 cumulative IPC: 1.27812 (Simulation time: 1 hr 14 min 0 sec) 
Heartbeat CPU 3 instructions: 220000000 cycles: 151493581 heartbeat IPC: 1.2816 cumulative IPC: 1.27692 (Simulation time: 1 hr 14 min 3 sec) 
Heartbeat CPU 1 instructions: 220000000 cycles: 151568714 heartbeat IPC: 1.28241 cumulative IPC: 1.2762 (Simulation time: 1 hr 14 min 4 sec) 
Heartbeat CPU 2 instructions: 220000000 cycles: 151584178 heartbeat IPC: 1.28184 cumulative IPC: 1.27605 (Simulation time: 1 hr 14 min 5 sec) 
Heartbeat CPU 0 instructions: 230000000 cycles: 159171716 heartbeat IPC: 1.28094 cumulative IPC: 1.27828 (Simulation time: 1 hr 17 min 39 sec) 
Heartbeat CPU 3 instructions: 230000000 cycles: 159289448 heartbeat IPC: 1.28273 cumulative IPC: 1.27725 (Simulation time: 1 hr 17 min 42 sec) 
Heartbeat CPU 1 instructions: 230000000 cycles: 159378643 heartbeat IPC: 1.28042 cumulative IPC: 1.27643 (Simulation time: 1 hr 17 min 44 sec) 
Heartbeat CPU 2 instructions: 230000000 cycles: 159393391 heartbeat IPC: 1.28054 cumulative IPC: 1.2763 (Simulation time: 1 hr 17 min 44 sec) 
Heartbeat CPU 0 instructions: 240000000 cycles: 166982207 heartbeat IPC: 1.28033 cumulative IPC: 1.27839 (Simulation time: 1 hr 20 min 56 sec) 
Heartbeat CPU 3 instructions: 240000000 cycles: 167101973 heartbeat IPC: 1.28 cumulative IPC: 1.27739 (Simulation time: 1 hr 20 min 59 sec) 
Heartbeat CPU 1 instructions: 240000000 cycles: 167167315 heartbeat IPC: 1.28392 cumulative IPC: 1.27682 (Simulation time: 1 hr 21 min 0 sec) 
Heartbeat CPU 2 instructions: 240000000 cycles: 167212157 heartbeat IPC: 1.27897 cumulative IPC: 1.27644 (Simulation time: 1 hr 21 min 2 sec) 
Heartbeat CPU 0 instructions: 250000001 cycles: 174758347 heartbeat IPC: 1.28599 cumulative IPC: 1.27877 (Simulation time: 1 hr 24 min 12 sec) 
Finished CPU 0 instructions: 200000002 cycles: 156400607 cumulative IPC: 1.27877 (Simulation time: 1 hr 24 min 12 sec) 
Heartbeat CPU 3 instructions: 250000001 cycles: 174888996 heartbeat IPC: 1.28419 cumulative IPC: 1.27773 (Simulation time: 1 hr 24 min 15 sec) 
Finished CPU 3 instructions: 200000001 cycles: 156527764 cumulative IPC: 1.27773 (Simulation time: 1 hr 24 min 15 sec) 
Heartbeat CPU 1 instructions: 250000001 cycles: 174958682 heartbeat IPC: 1.28347 cumulative IPC: 1.27715 (Simulation time: 1 hr 24 min 17 sec) 
Finished CPU 1 instructions: 200000003 cycles: 156598290 cumulative IPC: 1.27715 (Simulation time: 1 hr 24 min 17 sec) 
Heartbeat CPU 2 instructions: 250000001 cycles: 175023259 heartbeat IPC: 1.28023 cumulative IPC: 1.27663 (Simulation time: 1 hr 24 min 18 sec) 
Finished CPU 2 instructions: 200000002 cycles: 156662868 cumulative IPC: 1.27663 (Simulation time: 1 hr 24 min 18 sec) 

ChampSim completed all CPUs

Total Simulation Statistics (not including warmup)

CPU 0 cumulative IPC: 1.27877 instructions: 200335426 cycles: 156662868
ITLB TOTAL     ACCESS:   28357616  HIT:   28357616  MISS:          0  HIT %:        100  MISS %:          0   MPKI: 0
ITLB LOAD      ACCESS:          0  HIT:          0  MISS:          0  HIT %:       -nan  MISS %:       -nan   MPKI: 0
ITLB RFO       ACCESS:          0  HIT:          0  MISS:          0  HIT %:       -nan  MISS %:       -nan   MPKI: 0
ITLB PREFETCH  ACCESS:          0  HIT:          0  MISS:          0  HIT %:       -nan  MISS %:       -nan   MPKI: 0
ITLB WRITEBACK ACCESS:          0  HIT:          0  MISS:          0  HIT %:       -nan  MISS %:       -nan   MPKI: 0
DTLB TOTAL     ACCESS:   56796101  HIT:   49217023  MISS:    7579078  HIT %:    86.6556  MISS %:    13.3444   MPKI: 37.8319
DTLB LOAD      ACCESS:          0  HIT:          0  MISS:          0  HIT %:       -nan  MISS %:       -nan   MPKI: 0
DTLB RFO       ACCESS:          0  HIT:          0  MISS:          0  HIT %:       -nan  MISS %:       -nan   MPKI: 0
DTLB PREFETCH  ACCESS:          0  HIT:          0  MISS:          0  HIT %:       -nan  MISS %:       -nan   MPKI: 0
DTLB WRITEBACK ACCESS:          0  HIT:          0  MISS:          0  HIT %:       -nan  MISS %:       -nan   MPKI: 0
STLB TOTAL     ACCESS:    7985750  HIT:    7977439  MISS:       8311  HIT %:    99.8959  MISS %:   0.104073   MPKI: 0.0414854
STLB LOAD      ACCESS:          0  HIT:          0  MISS:          0  HIT %:       -nan  MISS %:       -nan   MPKI: 0
STLB RFO       ACCESS:          0  HIT:          0  MISS:          0  HIT %:       -nan  MISS %:       -nan   MPKI: 0
STLB PREFETCH  ACCESS:          0  HIT:          0  MISS:          0  HIT %:       -nan  MISS %:       -nan   MPKI: 0
STLB WRITEBACK ACCESS:          0  HIT:          0  MISS:          0  HIT %:       -nan  MISS %:       -nan   MPKI: 0
L1D TOTAL     ACCESS:   78775874  HIT:   63663876  MISS:   15111998  HIT %:    80.8165  MISS %:    19.1835   MPKI: 75.4335
L1D LOAD      ACCESS:   62484127  HIT:   48998965  MISS:   13485162  HIT %:    78.4183  MISS %:    21.5817   MPKI: 67.3129
L1D RFO       ACCESS:   15805699  HIT:   14602055  MISS:    1203644  HIT %:    92.3847  MISS %:    7.61525   MPKI: 6.00814
L1D PREFETCH  ACCESS:     486048  HIT:      62856  MISS:     423192  HIT %:    12.9321  MISS %:    87.0679   MPKI: 2.11242
L1D WRITEBACK ACCESS:          0  HIT:          0  MISS:          0  HIT %:       -nan  MISS %:       -nan   MPKI: 0
L1I TOTAL     ACCESS:   31603621  HIT:   25809477  MISS:    5794144  HIT %:    81.6662  MISS %:    18.3338   MPKI: 28.9222
L1I LOAD      ACCESS:   31603621  HIT:   25809477  MISS:    5794144  HIT %:    81.6662  MISS %:    18.3338   MPKI: 28.9222
L1I RFO       ACCESS:          0  HIT:          0  MISS:          0  HIT %:       -nan  MISS %:       -nan   MPKI: 0
L1I PREFETCH  ACCESS:          0  HIT:          0  MISS:          0  HIT %:       -nan  MISS %:       -nan   MPKI: 0
L1I WRITEBACK ACCESS:          0  HIT:          0  MISS:          0  HIT %:       -nan  MISS %:       -nan   MPKI: 0
L2C TOTAL     ACCESS:   22288881  HIT:   21128633  MISS:    1160248  HIT %:    94.7945  MISS %:     5.2055   MPKI: 5.79153
L2C LOAD      ACCESS:   19277071  HIT:   18656594  MISS:     620477  HIT %:    96.7813  MISS %:    3.21873   MPKI: 3.09719
L2C RFO       ACCESS:    1202092  HIT:    1084529  MISS:     117563  HIT %:    90.2201  MISS %:    9.77987   MPKI: 0.586831
L2C PREFETCH  ACCESS:     499455  HIT:      92503  MISS:     406952  HIT %:    18.5208  MISS %:    81.4792   MPKI: 2.03135
L2C WRITEBACK ACCESS:    1297696  HIT:    1293667  MISS:       4029  HIT %:    99.6895  MISS %:   0.310473   MPKI: 0.0201113
PSCL5 TOTAL     ACCESS:       8311  HIT:       8311  MISS:          0  HIT %:        100  MISS %:          0   MPKI: 0
PSCL5 LOAD      ACCESS:          0  HIT:          0  MISS:          0  HIT %:       -nan  MISS %:       -nan   MPKI: 0
PSCL5 RFO       ACCESS:          0  HIT:          0  MISS:          0  HIT %:       -nan  MISS %:       -nan   MPKI: 0
PSCL5 PREFETCH  ACCESS:          0  HIT:          0  MISS:          0  HIT %:       -nan  MISS %:       -nan   MPKI: 0
PSCL5 WRITEBACK ACCESS:          0  HIT:          0  MISS:          0  HIT %:       -nan  MISS %:       -nan   MPKI: 0
PSCL4 TOTAL     ACCESS:       8311  HIT:       8311  MISS:          0  HIT %:        100  MISS %:          0   MPKI: 0
PSCL4 LOAD      ACCESS:          0  HIT:          0  MISS:          0  HIT %:       -nan  MISS %:       -nan   MPKI: 0
PSCL4 RFO       ACCESS:          0  HIT:          0  MISS:          0  HIT %:       -nan  MISS %:       -nan   MPKI: 0
PSCL4 PREFETCH  ACCESS:          0  HIT:          0  MISS:          0  HIT %:       -nan  MISS %:       -nan   MPKI: 0
PSCL4 WRITEBACK ACCESS:          0  HIT:          0  MISS:          0  HIT %:       -nan  MISS %:       -nan   MPKI: 0
PSCL3 TOTAL     ACCESS:       8299  HIT:       8297  MISS:          2  HIT %:    99.9759  MISS %:  0.0240993   MPKI: 9.98326e-06
PSCL3 LOAD      ACCESS:          0  HIT:          0  MISS:          0  HIT %:       -nan  MISS %:       -nan   MPKI: 0
PSCL3 RFO       ACCESS:          0  HIT:          0  MISS:          0  HIT %:       -nan  MISS %:       -nan   MPKI: 0
PSCL3 PREFETCH  ACCESS:          0  HIT:          0  MISS:          0  HIT %:       -nan  MISS %:       -nan   MPKI: 0
PSCL3 WRITEBACK ACCESS:          0  HIT:          0  MISS:          0  HIT %:       -nan  MISS %:       -nan   MPKI: 0
PSCL2 TOTAL     ACCESS:       8311  HIT:       4048  MISS:       4263  HIT %:    48.7065  MISS %:    51.2935   MPKI: 0.0212793
PSCL2 LOAD      ACCESS:          0  HIT:          0  MISS:          0  HIT %:       -nan  MISS %:       -nan   MPKI: 0
PSCL2 RFO       ACCESS:          0  HIT:          0  MISS:          0  HIT %:       -nan  MISS %:       -nan   MPKI: 0
PSCL2 PREFETCH  ACCESS:          0  HIT:          0  MISS:          0  HIT %:       -nan  MISS %:       -nan   MPKI: 0
PSCL2 WRITEBACK ACCESS:          0  HIT:          0  MISS:          0  HIT %:       -nan  MISS %:       -nan   MPKI: 0
=== CPU 0 L1D Prefetcher Statistics ===
[MLOP] History of tracked zone:
IIIIIIIIIIIIIIIIIIIIIIIIIIIIIIIIIIIIIIIIIIIIIIIIIIIIIIIIIIIIIIII
IIIIIIIIIIIIIIIIIIIIIIIIIIIIIIIIIIIIIIIIIIIIIIIIIIAIIIIIIIIIIIII
IIIIIIIIIIIIIIIIIIIIIIIIIIIIIAIIIIIIIIIIIIIIIIIIIIAIIIIIIIIIIIII
IIIIIIIAIIIIIIIIIIIIIIIIIIIIIAIIIIIIIIIIIIIIIIIIIIAIIIIIIIIIIIII
IIIIIIIAIIIIIIIIIIIIIIIIIIIIAAIIIIIIIIIIIIIIIIIIIIAIIIIIIIIIIIII
IIIIIIIAIIIIIIIIIIIIIIIIIIIIAAIIIIIIIIIIIIIIIIIIIIAAIIIIIIIIIIII
IIIIIIIAAIIIIIIIIIIIIIIIIIIIAAIIIIIIIIIIIIIIIIIIIIAAIIIIIIIIIIII
IIIIIIIAAIIIIIIIIIIIIIIIIIIIAAAIIIIIIIIIIIIIIIIIIIAAIIIIIIIIIIII
IIIIIIIAAIIIIIIIIIIIIIIIIIIIAAAIIIIIIIIIIIIIIIIIIIAA2IIIIIIIIIII
IIIIIIIAAIIIIIIIIIIIIIIIIIIIAAA2IIIIIIIIIIIIIIIIIIAA2IIIIIIIIIII
IIIIIIIAA2IIIIIIIIIIIIIIIIIIAAA2IIIIIIIIIIIIIIIIIIAA2IIIIIIIIIII
IIIIIIIAA2IIIIIIIIIIIIIIIIIIAAA2IIIIIIIIIIIIIIIIIIAAA2IIIIIIIIII
IIIIIIIAAA2IIIIIIIIIIIIIIIIIAAA2IIIIIIIIIIIIIIIIIIAAA2IIIIIIIIII
IIIIIIIAAA2IIIIIIIIIIIIIIIIIAAAA2IIIIIIIIIIIIIIIIIAAA2IIIIIIIIII
IIIIIIIAAA2IIIIIIIIIIIIIIIIIAAAA2IIIIIIIIIIIIIIIIIAAAA2IIIIIIIII
IIIIIIIAAAA2IIIIIIIIIIIIIIIIAAAA2IIIIIIIIIIIIIIIIIAAAA2IIIIIIIII
IIIIIIIAAAA2IIIIIIIIIIIIIIIIAAAA11IIIIIIIIIIIIIIIIAAAA2IIIIIIIII
IIIIIIIAAAA11IIIIIIIIIIIIIIIAAAA11IIIIIIIIIIIIIIIIAAAA2IIIIIIIII
IIIIIIIAAAA11IIIIIIIIIIIIIIIAAAA11IIIIIIIIIIIIIIIIAAAA1IIIIIIIII
IIIIIIIAAAA11IIIIIIIIIIIIIIIAAAA11IIIIIIIIIIIIIIIIAAAA11IIIIIIII
IIIIIIIAAAA11IIIIIIIIIIIIIIIAAAAA11IIIIIIIIIIIIIIIAAAA11IIIIIIII
IIIIIIIAAAA11IIIIIIIIIIIIIIIAAAAA11IIIIIIIIIIIIIIIAAAAA11IIIIIII
IIIIIIIAAAAA11IIIIIIIIIIIIIIAAAAA11IIIIIIIIIIIIIIIAAAAA11IIIIIII
IIIIIIIAAAAA11IIIIIIIIIIIIIIAAAAAA11IIIIIIIIIIIIIIAAAAA11IIIIIII
IIIIIIIAAAAA11IIIIIIIIIIIIIIAAAAAA11IIIIIIIIIIIIIIAAAAA111IIIIII
IIIIIIIAAAAA11IIIIIIIIIIIIIIAAAAAA111IIIIIIIIIIIIIAAAAA111IIIIII
IIIIIIIAAAAA111IIIIIIIIIIIIIAAAAAA111IIIIIIIIIIIIIAAAAA111IIIIII
IIIIIIIAAAAA111IIIIIIIIIIIIIAAAAAA111IIIIIIIIIIIIIAAAAAA111IIIII
IIIIIIIAAAAAA111IIIIIIIIIIIIAAAAAA111IIIIIIIIIIIIIAAAAAA111IIIII
IIIIIIIAAAAAA111IIIIIIIIIIIIAAAAAAA111IIIIIIIIIIIIAAAAAA111IIIII
IIIIIIIAAAAAA111IIIIIIIIIIIIAAAAAAA111IIIIIIIIIIIIAAAAAAA111IIII
IIIIIIIAAAAAAA111IIIIIIIIIIIAAAAAAA111IIIIIIIIIIIIAAAAAAA111IIII
IIIIIIIAAAAAAA111IIIIIIIIIIIAAAAAAA111IIIIIIIIIIIIAAAAAAA1111III
IIIIIIIAAAAAAA111IIIIIIIIIIIAAAAAAA1111IIIIIIIIIIIAAAAAAA1111III
IIIIIIIAAAAAAA1111IIIIIIIIIIAAAAAAA1111IIIIIIIIIIIAAAAAAA1111III
IIIIIIIAAAAAAA1111IIIIIIIIIIAAAAAAAA1111IIIIIIIIIIAAAAAAA1111III
IIIIIIIAAAAAAA1111IIIIIIIIIIAAAAAAAA1111IIIIIIIIIIAAAAAAAA1111II
IIIIIIIAAAAAAAA1111IIIIIIIIIAAAAAAAA1111IIIIIIIIIIAAAAAAAA1111II
IIIIIIIAAAAAAAA1111IIIIIIIIIAAAAAAAAA1111IIIIIIIIIAAAAAAAA1111II
IIIIIIIAAAAAAAA1111IIIIIIIIIAAAAAAAAA1111IIIIIIIIIAAAAAAAAA1111I
IIIIIIIAAAAAAAAA1111IIIIIIIIAAAAAAAAA1111IIIIIIIIIAAAAAAAAA1111I
IIIIIIIAAAAAAAAA1111IIIIIIIIAAAAAAAAA1111IIIIIIIIIAAAAAAAAA11111
IIIIIIIAAAAAAAAA11111IIIIIIIAAAAAAAAA1111IIIIIIIIIAAAAAAAAA11111
IIIIIIIAAAAAAAAA11111IIIIIIIAAAAAAAAA111111IIIIIIIAAAAAAAAA11111
IIIIIIIAAAAAAAAA111111IIIIIIAAAAAAAAA111111IIIIIIIAAAAAAAAA11111
IIIIIIIAAAAAAAAA111111IIIIIIAAAAAAAAAA111111IIIIIIAAAAAAAAA11111
IIIIIIIAAAAAAAAA111111IIIIIIAAAAAAAAAA111111IIIIIIAAAAAAAAAA1111
IIIIIIIAAAAAAAAAA111111IIIIIAAAAAAAAAA111111IIIIIIAAAAAAAAAA1111
IIIIIIIAAAAAAAAAA111111IIIIIAAAAAAAAAAA111111IIIIIAAAAAAAAAA1111
IIIIIIIAAAAAAAAAA11111111IIIAAAAAAAAAAA111111IIIIIAAAAAAAAAA1111
IIIIIIIAAAAAAAAAA11111111IIIAAAAAAAAAAA1111111IIIIAAAAAAAAAA1111
IIIIIIIAAAAAAAAAA11111111IIIAAAAAAAAAAA11111111IIIAAAAAAAAAA1111
IIIIIIIAAAAAAAAAA11111111IIIAAAAAAAAAAA11111111IIIAAAAAAAAAAA111
IIIIIIIAAAAAAAAAAA11111111IIAAAAAAAAAAA11111111IIIAAAAAAAAAAA111
IIIIIIIAAAAAAAAAAA11111111IIAAAAAAAAAAAA11111111IIAAAAAAAAAAA111
IIIIIIIAAAAAAAAAAA11111111IIAAAAAAAAAAAA11111111IIAAAAAAAAAAAA11
IIIIIIIAAAAAAAAAAAA11111111IAAAAAAAAAAAA11111111IIAAAAAAAAAAAA11
IIIIIIIAAAAAAAAAAAA11111111IAAAAAAAAAAAAA1111111IIAAAAAAAAAAAA11
IIIIIIIAAAAAAAAAAAA11111111IAAAAAAAAAAAAA1111111IIAAAAAAAAAAAAA1
IIIIIIIAAAAAAAAAAAAA1111111IAAAAAAAAAAAAA1111111IIAAAAAAAAAAAAA1
IIIIIIIAAAAAAAAAAAAA1111111IAAAAAAAAAAAAAA111111IIAAAAAAAAAAAAA1
IIIIIIIAAAAAAAAAAAAA1111111IAAAAAAAAAAAAAA111111IIAAAAAAAAAAAAAA
IIIIIIIAAAAAAAAAAAAAA111111IAAAAAAAAAAAAAA111111IIAAAAAAAAAAAAAA
IIIIIIIAAAAAAAAAAAAAA111111IAAAAAAAAAAAAAAA11111IIAAAAAAAAAAAAAA
IIIIIIIAAAAAAAAAAAAAAA11111IAAAAAAAAAAAAAAA11111IIAAAAAAAAAAAAAA
IIIIIIIAAAAAAAAAAAAAAA11111IAAAAAAAAAAAAAAAA11111IAAAAAAAAAAAAAA
IIIIIIIAAAAAAAAAAAAAAAA11111AAAAAAAAAAAAAAAA11111IAAAAAAAAAAAAAA
IIIIIIIAAAAAAAAAAAAAAAA11111AAAAAAAAAAAAAAAAA11111AAAAAAAAAAAAAA
IIIIIIIAAAAAAAAAAAAAAAAA1111AAAAAAAAAAAAAAAAA11111AAAAAAAAAAAAAA
IIIIIIIAAAAAAAAAAAAAAAAA1111AAAAAAAAAAAAAAAAAA1111AAAAAAAAAAAAAA
IIIIIIIAAAAAAAAAAAAAAAAAA111AAAAAAAAAAAAAAAAAA1111AAAAAAAAAAAAAA
IIIIIIIAAAAAAAAAAAAAAAAAA111AAAAAAAAAAAAAAAAAAA111AAAAAAAAAAAAAA
IIIIIIIAAAAAAAAAAAAAAAAAAA11AAAAAAAAAAAAAAAAAAA111AAAAAAAAAAAAAA
IIIIIIIAAAAAAAAAAAAAAAAAAA11AAAAAAAAAAAAAAAAAAAA11AAAAAAAAAAAAAA
IIIIIIIAAAAAAAAAAAAAAAAAAAA1AAAAAAAAAAAAAAAAAAAA11AAAAAAAAAAAAAA
IIIIIIIAAAAAAAAAAAAAAAAAAAA1AAAAAAAAAAAAAAAAAAAAA1AAAAAAAAAAAAAA
IIIIIIIAAAAAAAAAAAAAAAAAAAAAAAAAAAAAAAAAAAAAAAAAA1AAAAAAAAAAAAAA
IIIIIIIAAAAAAAAAAAAAAAAAAAAAAAAAAAAAAAAAAAAAAAAAAAAAAAAAAAAAAAAA
A111IIIIIIIIIIIIIIIIIIIIIIIIIIIIIIIIIIIIIIIIIIIIIIIIIIIIIIIIIIII
AA111IIIIIIIIIIIIIIIIIIIIIIIIIIIIIIIIIIIIIIIIIIIIIIIIIIIIIIIIIII
AAA111IIIIIIIIIIIIIIIIIIIIIIIIIIIIIIIIIIIIIIIIIIIIIIIIIIIIIIIIII
AAAA111IIIIIIIIIIIIIIIIIIIIIIIIIIIIIIIIIIIIIIIIIIIIIIIIIIIIIIIII
AAAAA111IIIIIIIIIIIIIIIIIIIIIIIIIIIIIIIIIIIIIIIIIIIIIIIIIIIIIIII
AAAAAA111IIIIIIIIIIIIIIIIIIIIIIIIIIIIIIIIIIIIIIIIIIIIIIIIIIIIIII
AAAAAAA111IIIIIIIIIIIIIIIIIIIIIIIIIIIIIIIIIIIIIIIIIIIIIIIIIIIIII
AAAAAAAA111IIIIIIIIIIIIIIIIIIIIIIIIIIIIIIIIIIIIIIIIIIIIIIIIIIIII
AAAAAAAAA111IIIIIIIIIIIIIIIIIIIIIIIIIIIIIIIIIIIIIIIIIIIIIIIIIIII
AAAAAAAAAA11IIIIIIIIIIIIIIIIIIIIIIIIIIIIIIIIIIIIIIIIIIIIIIIIIIII
AAAAAAAAAA1111IIIIIIIIIIIIIIIIIIIIIIIIIIIIIIIIIIIIIIIIIIIIIIIIII
AAAAAAAAAAA111IIIIIIIIIIIIIIIIIIIIIIIIIIIIIIIIIIIIIIIIIIIIIIIIII
AAAAAAAAAAA1111IIIIIIIIIIIIIIIIIIIIIIIIIIIIIIIIIIIIIIIIIIIIIIIII
AAAAAAAAAAAA1111IIIIIIIIIIIIIIIIIIIIIIIIIIIIIIIIIIIIIIIIIIIIIIII
AAAAAAAAAAAAA1111IIIIIIIIIIIIIIIIIIIIIIIIIIIIIIIIIIIIIIIIIIIIIII
AAAAAAAAAAAAAA111IIIIIIIIIIIIIIIIIIIIIIIIIIIIIIIIIIIIIIIIIIIIIII
AAAAAAAAAAAAAA1111IIIIIIIIIIIIIIIIIIIIIIIIIIIIIIIIIIIIIIIIIIIIII
AAAAAAAAAAAAAAA1111IIIIIIIIIIIIIIIIIIIIIIIIIIIIIIIIIIIIIIIIIIIII
AAAAAAAAAAAAAAAA1111IIIIIIIIIIIIIIIIIIIIIIIIIIIIIIIIIIIIIIIIIIII
AAAAAAAAAAAAAAAAA111IIIIIIIIIIIIIIIIIIIIIIIIIIIIIIIIIIIIIIIIIIII
AAAAAAAAAAAAAAAAAA111IIIIIIIIIIIIIIIIIIIIIIIIIIIIIIIIIIIIIIIIIII
AAAAAAAAAAAAAAAAAAA111IIIIIIIIIIIIIIIIIIIIIIIIIIIIIIIIIIIIIIIIII
AAAAAAAAAAAAAAAAAAAA111IIIIIIIIIIIIIIIIIIIIIIIIIIIIIIIIIIIIIIIII
AAAAAAAAAAAAAAAAAAAAA11IIIIIIIIIIIIIIIIIIIIIIIIIIIIIIIIIIIIIIIII
AAAAAAAAAAAAAAAAAAAAA111IIIIIIIIIIIIIIIIIIIIIIIIIIIIIIIIIIIIIIII
AAAAAAAAAAAAAAAAAAAAAA11IIIIIIIIIIIIIIIIIIIIIIIIIIIIIIIIIIIIIIII
AAAAAAAAAAAAAAAAAAAAAA111IIIIIIIIIIIIIIIIIIIIIIIIIIIIIIIIIIIIIII
AAAAAAAAAAAAAAAAAAAAAAA11IIIIIIIIIIIIIIIIIIIIIIIIIIIIIIIIIIIIIII
AAAAAAAAAAAAAAAAAAAAAAA111IIIIIIIIIIIIIIIIIIIIIIIIIIIIIIIIIIIIII
AAAAAAAAAAAAAAAAAAAAAAAA111IIIIIIIIIIIIIIIIIIIIIIIIIIIIIIIIIIIII
AAAAAAAAAAAAAAAAAAAAAAAAA111IIIIIIIIIIIIIIIIIIIIIIIIIIIIIIIIIIII
AAAAAAAAAAAAAAAAAAAAAAAAAA111IIIIIIIIIIIIIIIIIIIIIIIIIIIIIIIIIII
AAAAAAAAAAAAAAAAAAAAAAAAAAA111IIIIIIIIIIIIIIIIIIIIIIIIIIIIIIIIII
AAAAAAAAAAAAAAAAAAAAAAAAAAAA111IIIIIIIIIIIIIIIIIIIIIIIIIIIIIIIII
AAAAAAAAAAAAAAAAAAAAAAAAAAAAA1111IIIIIIIIIIIIIIIIIIIIIIIIIIIIIII
AAAAAAAAAAAAAAAAAAAAAAAAAAAAAA1111IIIIIIIIIIIIIIIIIIIIIIIIIIIIII
AAAAAAAAAAAAAAAAAAAAAAAAAAAAAAA1111IIIIIIIIIIIIIIIIIIIIIIIIIIIII
AAAAAAAAAAAAAAAAAAAAAAAAAAAAAAAA1111IIIIIIIIIIIIIIIIIIIIIIIIIIII
AAAAAAAAAAAAAAAAAAAAAAAAAAAAAAAAA1111IIIIIIIIIIIIIIIIIIIIIIIIIII
AAAAAAAAAAAAAAAAAAAAAAAAAAAAAAAAAA1111IIIIIIIIIIIIIIIIIIIIIIIIII
AAAAAAAAAAAAAAAAAAAAAAAAAAAAAAAAAAA1111IIIIIIIIIIIIIIIIIIIIIIIII
AAAAAAAAAAAAAAAAAAAAAAAAAAAAAAAAAAAA1111IIIIIIIIIIIIIIIIIIIIIIII
AAAAAAAAAAAAAAAAAAAAAAAAAAAAAAAAAAAAA1111IIIIIIIIIIIIIIIIIIIIIII
AAAAAAAAAAAAAAAAAAAAAAAAAAAAAAAAAAAAAA1111IIIIIIIIIIIIIIIIIIIIII
AAAAAAAAAAAAAAAAAAAAAAAAAAAAAAAAAAAAAAA1111IIIIIIIIIIIIIIIIIIIII
AAAAAAAAAAAAAAAAAAAAAAAAAAAAAAAAAAAAAAAA1111IIIIIIIIIIIIIIIIIIII
AAAAAAAAAAAAAAAAAAAAAAAAAAAAAAAAAAAAAAAAA1111IIIIIIIIIIIIIIIIIII
AAAAAAAAAAAAAAAAAAAAAAAAAAAAAAAAAAAAAAAAA11111IIIIIIIIIIIIIIIIII
AAAAAAAAAAAAAAAAAAAAAAAAAAAAAAAAAAAAAAAAAA11111IIIIIIIIIIIIIIIII
AAAAAAAAAAAAAAAAAAAAAAAAAAAAAAAAAAAAAAAAAAA11111IIIIIIIIIIIIIIII
AAAAAAAAAAAAAAAAAAAAAAAAAAAAAAAAAAAAAAAAAAAA11111IIIIIIIIIIIIIII
AAAAAAAAAAAAAAAAAAAAAAAAAAAAAAAAAAAAAAAAAAAAA11111IIIIIIIIIIIIII
AAAAAAAAAAAAAAAAAAAAAAAAAAAAAAAAAAAAAAAAAAAAAA11111IIIIIIIIIIIII
AAAAAAAAAAAAAAAAAAAAAAAAAAAAAAAAAAAAAAAAAAAAAAA11111IIIIIIIIIIII
AAAAAAAAAAAAAAAAAAAAAAAAAAAAAAAAAAAAAAAAAAAAAAAA1111IIIIIIIIIIII
AAAAAAAAAAAAAAAAAAAAAAAAAAAAAAAAAAAAAAAAAAAAAAAAA111IIIIIIIIIIII
AAAAAAAAAAAAAAAAAAAAAAAAAAAAAAAAAAAAAAAAAAAAAAAAAA111IIIIIIIIIII
AAAAAAAAAAAAAAAAAAAAAAAAAAAAAAAAAAAAAAAAAAAAAAAAAAA111IIIIIIIIII
AAAAAAAAAAAAAAAAAAAAAAAAAAAAAAAAAAAAAAAAAAAAAAAAAAAA111IIIIIIIII
AAAAAAAAAAAAAAAAAAAAAAAAAAAAAAAAAAAAAAAAAAAAAAAAAAAAA111IIIIIIII
AAAAAAAAAAAAAAAAAAAAAAAAAAAAAAAAAAAAAAAAAAAAAAAAAAAAAA1111IIIIII
AAAAAAAAAAAAAAAAAAAAAAAAAAAAAAAAAAAAAAAAAAAAAAAAAAAAAAA1111IIIII
AAAAAAAAAAAAAAAAAAAAAAAAAAAAAAAAAAAAAAAAAAAAAAAAAAAAAAAA1111IIII
AAAAAAAAAAAAAAAAAAAAAAAAAAAAAAAAAAAAAAAAAAAAAAAAAAAAAAAAA1111III
AAAAAAAAAAAAAAAAAAAAAAAAAAAAAAAAAAAAAAAAAAAAAAAAAAAAAAAAAA1111II
AAAAAAAAAAAAAAAAAAAAAAAAAAAAAAAAAAAAAAAAAAAAAAAAAAAAAAAAAAA1111I
AAAAAAAAAAAAAAAAAAAAAAAAAAAAAAAAAAAAAAAAAAAAAAAAAAAAAAAAAAAA1111
AAAAAAAAAAAAAAAAAAAAAAAAAAAAAAAAAAAAAAAAAAAAAAAAAAAAAAAAAAAAA111
AAAAAAAAAAAAAAAAAAAAAAAAAAAAAAAAAAAAAAAAAAAAAAAAAAAAAAAAAAAAAA11
AAAAAAAAAAAAAAAAAAAAAAAAAAAAAAAAAAAAAAAAAAAAAAAAAAAAAAAAAAAAAAA1
AAAAAAAAAAAAAAAAAAAAAAAAAAAAAAAAAAAAAAAAAAAAAAAAAAAAAAAAAAAAAAAA
[MLOP] Prefetch Degree Mean: 3.7251
[MLOP] Prefetch Degree SD: 1.36742
[MLOP] Max Score Left Mean (%): 90.2238
[MLOP] Max Score Left SD (%): 17.8185
[MLOP] Max Score Right Mean (%): 94.7987
[MLOP] Max Score Right SD (%): 15.7323
LLC TOTAL     ACCESS:    1277332  HIT:     738510  MISS:     538822  HIT %:    57.8166  MISS %:    42.1834   MPKI: 2.6896
LLC LOAD      ACCESS:     620476  HIT:     606008  MISS:      14468  HIT %:    97.6682  MISS %:    2.33176   MPKI: 0.0722189
LLC RFO       ACCESS:     117555  HIT:        270  MISS:     117285  HIT %:    0.22968  MISS %:    99.7703   MPKI: 0.585443
LLC PREFETCH  ACCESS:     406953  HIT:       6120  MISS:     400833  HIT %:    1.50386  MISS %:    98.4961   MPKI: 2.00081
LLC WRITEBACK ACCESS:     121121  HIT:     116080  MISS:       5041  HIT %:     95.838  MISS %:    4.16195   MPKI: 0.0251628

RAW hits: 715104
Loads Generated: 77966201
Loads sent to L1D: 77251100
Stores Generated: 16043136
Stores sent to L1D: 16043136

CPU 1 cumulative IPC: 1.27717 instructions: 200084525 cycles: 156662868
ITLB TOTAL     ACCESS:   28320916  HIT:   28320916  MISS:          0  HIT %:        100  MISS %:          0   MPKI: 0
ITLB LOAD      ACCESS:          0  HIT:          0  MISS:          0  HIT %:       -nan  MISS %:       -nan   MPKI: 0
ITLB RFO       ACCESS:          0  HIT:          0  MISS:          0  HIT %:       -nan  MISS %:       -nan   MPKI: 0
ITLB PREFETCH  ACCESS:          0  HIT:          0  MISS:          0  HIT %:       -nan  MISS %:       -nan   MPKI: 0
ITLB WRITEBACK ACCESS:          0  HIT:          0  MISS:          0  HIT %:       -nan  MISS %:       -nan   MPKI: 0
DTLB TOTAL     ACCESS:   56724759  HIT:   49155291  MISS:    7569468  HIT %:    86.6558  MISS %:    13.3442   MPKI: 37.8314
DTLB LOAD      ACCESS:          0  HIT:          0  MISS:          0  HIT %:       -nan  MISS %:       -nan   MPKI: 0
DTLB RFO       ACCESS:          0  HIT:          0  MISS:          0  HIT %:       -nan  MISS %:       -nan   MPKI: 0
DTLB PREFETCH  ACCESS:          0  HIT:          0  MISS:          0  HIT %:       -nan  MISS %:       -nan   MPKI: 0
DTLB WRITEBACK ACCESS:          0  HIT:          0  MISS:          0  HIT %:       -nan  MISS %:       -nan   MPKI: 0
STLB TOTAL     ACCESS:    7975454  HIT:    7967158  MISS:       8296  HIT %:     99.896  MISS %:   0.104019   MPKI: 0.0414625
STLB LOAD      ACCESS:          0  HIT:          0  MISS:          0  HIT %:       -nan  MISS %:       -nan   MPKI: 0
STLB RFO       ACCESS:          0  HIT:          0  MISS:          0  HIT %:       -nan  MISS %:       -nan   MPKI: 0
STLB PREFETCH  ACCESS:          0  HIT:          0  MISS:          0  HIT %:       -nan  MISS %:       -nan   MPKI: 0
STLB WRITEBACK ACCESS:          0  HIT:          0  MISS:          0  HIT %:       -nan  MISS %:       -nan   MPKI: 0
L1D TOTAL     ACCESS:   78676433  HIT:   63583845  MISS:   15092588  HIT %:    80.8169  MISS %:    19.1831   MPKI: 75.4311
L1D LOAD      ACCESS:   62405779  HIT:   48937514  MISS:   13468265  HIT %:    78.4182  MISS %:    21.5818   MPKI: 67.3129
L1D RFO       ACCESS:   15786076  HIT:   14583788  MISS:    1202288  HIT %:    92.3839  MISS %:    7.61613   MPKI: 6.0089
L1D PREFETCH  ACCESS:     484578  HIT:      62543  MISS:     422035  HIT %:    12.9067  MISS %:    87.0933   MPKI: 2.10928
L1D WRITEBACK ACCESS:          0  HIT:          0  MISS:          0  HIT %:       -nan  MISS %:       -nan   MPKI: 0
L1I TOTAL     ACCESS:   31562579  HIT:   25775700  MISS:    5786879  HIT %:    81.6654  MISS %:    18.3346   MPKI: 28.9222
L1I LOAD      ACCESS:   31562579  HIT:   25775700  MISS:    5786879  HIT %:    81.6654  MISS %:    18.3346   MPKI: 28.9222
L1I RFO       ACCESS:          0  HIT:          0  MISS:          0  HIT %:       -nan  MISS %:       -nan   MPKI: 0
L1I PREFETCH  ACCESS:          0  HIT:          0  MISS:          0  HIT %:       -nan  MISS %:       -nan   MPKI: 0
L1I WRITEBACK ACCESS:          0  HIT:          0  MISS:          0  HIT %:       -nan  MISS %:       -nan   MPKI: 0
L2C TOTAL     ACCESS:   22266658  HIT:   21090745  MISS:    1175913  HIT %:     94.719  MISS %:    5.28105   MPKI: 5.87708
L2C LOAD      ACCESS:   19252935  HIT:   18616460  MISS:     636475  HIT %:    96.6941  MISS %:    3.30586   MPKI: 3.18103
L2C RFO       ACCESS:    1200659  HIT:    1082583  MISS:     118076  HIT %:    90.1657  MISS %:    9.83427   MPKI: 0.590131
L2C PREFETCH  ACCESS:     504229  HIT:      98110  MISS:     406119  HIT %:    19.4574  MISS %:    80.5426   MPKI: 2.02974
L2C WRITEBACK ACCESS:    1296286  HIT:    1292117  MISS:       4169  HIT %:    99.6784  MISS %:   0.321611   MPKI: 0.0208362
PSCL5 TOTAL     ACCESS:       8296  HIT:       8296  MISS:          0  HIT %:        100  MISS %:          0   MPKI: 0
PSCL5 LOAD      ACCESS:          0  HIT:          0  MISS:          0  HIT %:       -nan  MISS %:       -nan   MPKI: 0
PSCL5 RFO       ACCESS:          0  HIT:          0  MISS:          0  HIT %:       -nan  MISS %:       -nan   MPKI: 0
PSCL5 PREFETCH  ACCESS:          0  HIT:          0  MISS:          0  HIT %:       -nan  MISS %:       -nan   MPKI: 0
PSCL5 WRITEBACK ACCESS:          0  HIT:          0  MISS:          0  HIT %:       -nan  MISS %:       -nan   MPKI: 0
PSCL4 TOTAL     ACCESS:       8296  HIT:       8296  MISS:          0  HIT %:        100  MISS %:          0   MPKI: 0
PSCL4 LOAD      ACCESS:          0  HIT:          0  MISS:          0  HIT %:       -nan  MISS %:       -nan   MPKI: 0
PSCL4 RFO       ACCESS:          0  HIT:          0  MISS:          0  HIT %:       -nan  MISS %:       -nan   MPKI: 0
PSCL4 PREFETCH  ACCESS:          0  HIT:          0  MISS:          0  HIT %:       -nan  MISS %:       -nan   MPKI: 0
PSCL4 WRITEBACK ACCESS:          0  HIT:          0  MISS:          0  HIT %:       -nan  MISS %:       -nan   MPKI: 0
PSCL3 TOTAL     ACCESS:       8284  HIT:       8282  MISS:          2  HIT %:    99.9759  MISS %:  0.0241429   MPKI: 9.99578e-06
PSCL3 LOAD      ACCESS:          0  HIT:          0  MISS:          0  HIT %:       -nan  MISS %:       -nan   MPKI: 0
PSCL3 RFO       ACCESS:          0  HIT:          0  MISS:          0  HIT %:       -nan  MISS %:       -nan   MPKI: 0
PSCL3 PREFETCH  ACCESS:          0  HIT:          0  MISS:          0  HIT %:       -nan  MISS %:       -nan   MPKI: 0
PSCL3 WRITEBACK ACCESS:          0  HIT:          0  MISS:          0  HIT %:       -nan  MISS %:       -nan   MPKI: 0
PSCL2 TOTAL     ACCESS:       8296  HIT:       4036  MISS:       4260  HIT %:      48.65  MISS %:      51.35   MPKI: 0.021291
PSCL2 LOAD      ACCESS:          0  HIT:          0  MISS:          0  HIT %:       -nan  MISS %:       -nan   MPKI: 0
PSCL2 RFO       ACCESS:          0  HIT:          0  MISS:          0  HIT %:       -nan  MISS %:       -nan   MPKI: 0
PSCL2 PREFETCH  ACCESS:          0  HIT:          0  MISS:          0  HIT %:       -nan  MISS %:       -nan   MPKI: 0
PSCL2 WRITEBACK ACCESS:          0  HIT:          0  MISS:          0  HIT %:       -nan  MISS %:       -nan   MPKI: 0
=== CPU 1 L1D Prefetcher Statistics ===
[MLOP] History of tracked zone:
IIIIIIIIIIIIIIIIIIIIIIIIIIIIIIIIIIIIIIIIIIIIIIIIIIIIIIIIIIIIIIII
IIIIIIIIIIIIIIIIIIIIIIIIIIIIIIIIIIIIIIIIIIIIIIIIIIAIIIIIIIIIIIII
IIIIIIIIIIIIIIIIIIIIIIIIIIIIIAIIIIIIIIIIIIIIIIIIIIAIIIIIIIIIIIII
IIIIIIIAIIIIIIIIIIIIIIIIIIIIIAIIIIIIIIIIIIIIIIIIIIAIIIIIIIIIIIII
IIIIIIIAIIIIIIIIIIIIIIIIIIIIAAIIIIIIIIIIIIIIIIIIIIAIIIIIIIIIIIII
IIIIIIIAIIIIIIIIIIIIIIIIIIIIAAIIIIIIIIIIIIIIIIIIIIAAIIIIIIIIIIII
IIIIIIIAAIIIIIIIIIIIIIIIIIIIAAIIIIIIIIIIIIIIIIIIIIAAIIIIIIIIIIII
IIIIIIIAAIIIIIIIIIIIIIIIIIIIAAAIIIIIIIIIIIIIIIIIIIAAIIIIIIIIIIII
IIIIIIIAAIIIIIIIIIIIIIIIIIIIAAAIIIIIIIIIIIIIIIIIIIAA2IIIIIIIIIII
IIIIIIIAAIIIIIIIIIIIIIIIIIIIAAA2IIIIIIIIIIIIIIIIIIAA2IIIIIIIIIII
IIIIIIIAA2IIIIIIIIIIIIIIIIIIAAA2IIIIIIIIIIIIIIIIIIAA2IIIIIIIIIII
IIIIIIIAA2IIIIIIIIIIIIIIIIIIAAA2IIIIIIIIIIIIIIIIIIAAA2IIIIIIIIII
IIIIIIIAAA2IIIIIIIIIIIIIIIIIAAA2IIIIIIIIIIIIIIIIIIAAA2IIIIIIIIII
IIIIIIIAAA2IIIIIIIIIIIIIIIIIAAAA2IIIIIIIIIIIIIIIIIAAA2IIIIIIIIII
IIIIIIIAAA2IIIIIIIIIIIIIIIIIAAAA2IIIIIIIIIIIIIIIIIAAAA2IIIIIIIII
IIIIIIIAAAA2IIIIIIIIIIIIIIIIAAAA2IIIIIIIIIIIIIIIIIAAAA2IIIIIIIII
IIIIIIIAAAA2IIIIIIIIIIIIIIIIAAAA11IIIIIIIIIIIIIIIIAAAA2IIIIIIIII
IIIIIIIAAAA11IIIIIIIIIIIIIIIAAAA11IIIIIIIIIIIIIIIIAAAA2IIIIIIIII
IIIIIIIAAAA11IIIIIIIIIIIIIIIAAAA11IIIIIIIIIIIIIIIIAAAA1IIIIIIIII
IIIIIIIAAAA11IIIIIIIIIIIIIIIAAAA11IIIIIIIIIIIIIIIIAAAA11IIIIIIII
IIIIIIIAAAA11IIIIIIIIIIIIIIIAAAAA11IIIIIIIIIIIIIIIAAAA11IIIIIIII
IIIIIIIAAAA11IIIIIIIIIIIIIIIAAAAA11IIIIIIIIIIIIIIIAAAAA11IIIIIII
IIIIIIIAAAAA11IIIIIIIIIIIIIIAAAAA11IIIIIIIIIIIIIIIAAAAA11IIIIIII
IIIIIIIAAAAA11IIIIIIIIIIIIIIAAAAAA11IIIIIIIIIIIIIIAAAAA11IIIIIII
IIIIIIIAAAAA11IIIIIIIIIIIIIIAAAAAA11IIIIIIIIIIIIIIAAAAA111IIIIII
IIIIIIIAAAAA11IIIIIIIIIIIIIIAAAAAA111IIIIIIIIIIIIIAAAAA111IIIIII
IIIIIIIAAAAA111IIIIIIIIIIIIIAAAAAA111IIIIIIIIIIIIIAAAAA111IIIIII
IIIIIIIAAAAA111IIIIIIIIIIIIIAAAAAA111IIIIIIIIIIIIIAAAAAA111IIIII
IIIIIIIAAAAAA111IIIIIIIIIIIIAAAAAA111IIIIIIIIIIIIIAAAAAA111IIIII
IIIIIIIAAAAAA111IIIIIIIIIIIIAAAAAAA111IIIIIIIIIIIIAAAAAA111IIIII
IIIIIIIAAAAAA111IIIIIIIIIIIIAAAAAAA111IIIIIIIIIIIIAAAAAAA111IIII
IIIIIIIAAAAAAA111IIIIIIIIIIIAAAAAAA111IIIIIIIIIIIIAAAAAAA111IIII
IIIIIIIAAAAAAA111IIIIIIIIIIIAAAAAAA111IIIIIIIIIIIIAAAAAAA1111III
IIIIIIIAAAAAAA111IIIIIIIIIIIAAAAAAA1111IIIIIIIIIIIAAAAAAA1111III
IIIIIIIAAAAAAA1111IIIIIIIIIIAAAAAAA1111IIIIIIIIIIIAAAAAAA1111III
IIIIIIIAAAAAAA1111IIIIIIIIIIAAAAAAAA1111IIIIIIIIIIAAAAAAA1111III
IIIIIIIAAAAAAA1111IIIIIIIIIIAAAAAAAA1111IIIIIIIIIIAAAAAAAA1111II
IIIIIIIAAAAAAAA1111IIIIIIIIIAAAAAAAA1111IIIIIIIIIIAAAAAAAA1111II
IIIIIIIAAAAAAAA1111IIIIIIIIIAAAAAAAAA1111IIIIIIIIIAAAAAAAA1111II
IIIIIIIAAAAAAAA1111IIIIIIIIIAAAAAAAAA1111IIIIIIIIIAAAAAAAAA1111I
IIIIIIIAAAAAAAAA1111IIIIIIIIAAAAAAAAA1111IIIIIIIIIAAAAAAAAA1111I
IIIIIIIAAAAAAAAA1111IIIIIIIIAAAAAAAAA1111IIIIIIIIIAAAAAAAAA11111
IIIIIIIAAAAAAAAA1111IIIIIIIIAAAAAAAAA111111IIIIIIIAAAAAAAAA11111
IIIIIIIAAAAAAAAA11111IIIIIIIAAAAAAAAA111111IIIIIIIAAAAAAAAA11111
IIIIIIIAAAAAAAAA111111IIIIIIAAAAAAAAA111111IIIIIIIAAAAAAAAA11111
IIIIIIIAAAAAAAAA111111IIIIIIAAAAAAAAAA111111IIIIIIAAAAAAAAA11111
IIIIIIIAAAAAAAAA111111IIIIIIAAAAAAAAAA111111IIIIIIAAAAAAAAAA1111
IIIIIIIAAAAAAAAAA111111IIIIIAAAAAAAAAA111111IIIIIIAAAAAAAAAA1111
IIIIIIIAAAAAAAAAA111111IIIIIAAAAAAAAAAA111111IIIIIAAAAAAAAAA1111
IIIIIIIAAAAAAAAAA11111111IIIAAAAAAAAAAA111111IIIIIAAAAAAAAAA1111
IIIIIIIAAAAAAAAAA11111111IIIAAAAAAAAAAA1111111IIIIAAAAAAAAAA1111
IIIIIIIAAAAAAAAAA11111111IIIAAAAAAAAAAA11111111IIIAAAAAAAAAA1111
IIIIIIIAAAAAAAAAA11111111IIIAAAAAAAAAAA11111111IIIAAAAAAAAAAA111
IIIIIIIAAAAAAAAAAA11111111IIAAAAAAAAAAA11111111IIIAAAAAAAAAAA111
IIIIIIIAAAAAAAAAAA11111111IIAAAAAAAAAAAA11111111IIAAAAAAAAAAA111
IIIIIIIAAAAAAAAAAA11111111IIAAAAAAAAAAAA11111111IIAAAAAAAAAAAA11
IIIIIIIAAAAAAAAAAAA11111111IAAAAAAAAAAAA11111111IIAAAAAAAAAAAA11
IIIIIIIAAAAAAAAAAAA11111111IAAAAAAAAAAAAA1111111IIAAAAAAAAAAAA11
IIIIIIIAAAAAAAAAAAA11111111IAAAAAAAAAAAAA1111111IIAAAAAAAAAAAAA1
IIIIIIIAAAAAAAAAAAAA1111111IAAAAAAAAAAAAA1111111IIAAAAAAAAAAAAA1
IIIIIIIAAAAAAAAAAAAA1111111IAAAAAAAAAAAAAA111111IIAAAAAAAAAAAAA1
IIIIIIIAAAAAAAAAAAAA1111111IAAAAAAAAAAAAAA111111IIAAAAAAAAAAAAAA
IIIIIIIAAAAAAAAAAAAAA111111IAAAAAAAAAAAAAA111111IIAAAAAAAAAAAAAA
IIIIIIIAAAAAAAAAAAAAA111111IAAAAAAAAAAAAAAA11111IIAAAAAAAAAAAAAA
IIIIIIIAAAAAAAAAAAAAAA11111IAAAAAAAAAAAAAAA11111IIAAAAAAAAAAAAAA
IIIIIIIAAAAAAAAAAAAAAA11111IAAAAAAAAAAAAAAAA11111IAAAAAAAAAAAAAA
IIIIIIIAAAAAAAAAAAAAAAA11111AAAAAAAAAAAAAAAA11111IAAAAAAAAAAAAAA
IIIIIIIAAAAAAAAAAAAAAAA11111AAAAAAAAAAAAAAAAA11111AAAAAAAAAAAAAA
IIIIIIIAAAAAAAAAAAAAAAAA1111AAAAAAAAAAAAAAAAA11111AAAAAAAAAAAAAA
IIIIIIIAAAAAAAAAAAAAAAAA1111AAAAAAAAAAAAAAAAAA1111AAAAAAAAAAAAAA
IIIIIIIAAAAAAAAAAAAAAAAAA111AAAAAAAAAAAAAAAAAA1111AAAAAAAAAAAAAA
IIIIIIIAAAAAAAAAAAAAAAAAA111AAAAAAAAAAAAAAAAAAA111AAAAAAAAAAAAAA
IIIIIIIAAAAAAAAAAAAAAAAAAA11AAAAAAAAAAAAAAAAAAA111AAAAAAAAAAAAAA
IIIIIIIAAAAAAAAAAAAAAAAAAA11AAAAAAAAAAAAAAAAAAAA11AAAAAAAAAAAAAA
IIIIIIIAAAAAAAAAAAAAAAAAAAA1AAAAAAAAAAAAAAAAAAAA11AAAAAAAAAAAAAA
IIIIIIIAAAAAAAAAAAAAAAAAAAA1AAAAAAAAAAAAAAAAAAAAA1AAAAAAAAAAAAAA
IIIIIIIAAAAAAAAAAAAAAAAAAAAAAAAAAAAAAAAAAAAAAAAAA1AAAAAAAAAAAAAA
IIIIIIIAAAAAAAAAAAAAAAAAAAAAAAAAAAAAAAAAAAAAAAAAAAAAAAAAAAAAAAAA
A111IIIIIIIIIIIIIIIIIIIIIIIIIIIIIIIIIIIIIIIIIIIIIIIIIIIIIIIIIIII
AA111IIIIIIIIIIIIIIIIIIIIIIIIIIIIIIIIIIIIIIIIIIIIIIIIIIIIIIIIIII
AAA111IIIIIIIIIIIIIIIIIIIIIIIIIIIIIIIIIIIIIIIIIIIIIIIIIIIIIIIIII
AAAA111IIIIIIIIIIIIIIIIIIIIIIIIIIIIIIIIIIIIIIIIIIIIIIIIIIIIIIIII
AAAAA111IIIIIIIIIIIIIIIIIIIIIIIIIIIIIIIIIIIIIIIIIIIIIIIIIIIIIIII
AAAAAA111IIIIIIIIIIIIIIIIIIIIIIIIIIIIIIIIIIIIIIIIIIIIIIIIIIIIIII
AAAAAAA111IIIIIIIIIIIIIIIIIIIIIIIIIIIIIIIIIIIIIIIIIIIIIIIIIIIIII
AAAAAAAA111IIIIIIIIIIIIIIIIIIIIIIIIIIIIIIIIIIIIIIIIIIIIIIIIIIIII
AAAAAAAAA11IIIIIIIIIIIIIIIIIIIIIIIIIIIIIIIIIIIIIIIIIIIIIIIIIIIII
AAAAAAAAA1111IIIIIIIIIIIIIIIIIIIIIIIIIIIIIIIIIIIIIIIIIIIIIIIIIII
AAAAAAAAAA111IIIIIIIIIIIIIIIIIIIIIIIIIIIIIIIIIIIIIIIIIIIIIIIIIII
AAAAAAAAAA1111IIIIIIIIIIIIIIIIIIIIIIIIIIIIIIIIIIIIIIIIIIIIIIIIII
AAAAAAAAAAA111IIIIIIIIIIIIIIIIIIIIIIIIIIIIIIIIIIIIIIIIIIIIIIIIII
AAAAAAAAAAA1111IIIIIIIIIIIIIIIIIIIIIIIIIIIIIIIIIIIIIIIIIIIIIIIII
AAAAAAAAAAAA1111IIIIIIIIIIIIIIIIIIIIIIIIIIIIIIIIIIIIIIIIIIIIIIII
AAAAAAAAAAAAA1111IIIIIIIIIIIIIIIIIIIIIIIIIIIIIIIIIIIIIIIIIIIIIII
AAAAAAAAAAAAAA111IIIIIIIIIIIIIIIIIIIIIIIIIIIIIIIIIIIIIIIIIIIIIII
AAAAAAAAAAAAAA1111IIIIIIIIIIIIIIIIIIIIIIIIIIIIIIIIIIIIIIIIIIIIII
AAAAAAAAAAAAAAA1111IIIIIIIIIIIIIIIIIIIIIIIIIIIIIIIIIIIIIIIIIIIII
AAAAAAAAAAAAAAAA111IIIIIIIIIIIIIIIIIIIIIIIIIIIIIIIIIIIIIIIIIIIII
AAAAAAAAAAAAAAAA1111IIIIIIIIIIIIIIIIIIIIIIIIIIIIIIIIIIIIIIIIIIII
AAAAAAAAAAAAAAAAA111IIIIIIIIIIIIIIIIIIIIIIIIIIIIIIIIIIIIIIIIIIII
AAAAAAAAAAAAAAAAA1111IIIIIIIIIIIIIIIIIIIIIIIIIIIIIIIIIIIIIIIIIII
AAAAAAAAAAAAAAAAAA1111IIIIIIIIIIIIIIIIIIIIIIIIIIIIIIIIIIIIIIIIII
AAAAAAAAAAAAAAAAAAA1111IIIIIIIIIIIIIIIIIIIIIIIIIIIIIIIIIIIIIIIII
AAAAAAAAAAAAAAAAAAAA1111IIIIIIIIIIIIIIIIIIIIIIIIIIIIIIIIIIIIIIII
AAAAAAAAAAAAAAAAAAAAA111IIIIIIIIIIIIIIIIIIIIIIIIIIIIIIIIIIIIIIII
AAAAAAAAAAAAAAAAAAAAAA111IIIIIIIIIIIIIIIIIIIIIIIIIIIIIIIIIIIIIII
AAAAAAAAAAAAAAAAAAAAAAA111IIIIIIIIIIIIIIIIIIIIIIIIIIIIIIIIIIIIII
AAAAAAAAAAAAAAAAAAAAAAAA111IIIIIIIIIIIIIIIIIIIIIIIIIIIIIIIIIIIII
AAAAAAAAAAAAAAAAAAAAAAAAA111IIIIIIIIIIIIIIIIIIIIIIIIIIIIIIIIIIII
AAAAAAAAAAAAAAAAAAAAAAAAAA111IIIIIIIIIIIIIIIIIIIIIIIIIIIIIIIIIII
AAAAAAAAAAAAAAAAAAAAAAAAAAA111IIIIIIIIIIIIIIIIIIIIIIIIIIIIIIIIII
AAAAAAAAAAAAAAAAAAAAAAAAAAAA11IIIIIIIIIIIIIIIIIIIIIIIIIIIIIIIIII
AAAAAAAAAAAAAAAAAAAAAAAAAAAA111IIIIIIIIIIIIIIIIIIIIIIIIIIIIIIIII
AAAAAAAAAAAAAAAAAAAAAAAAAAAAA111IIIIIIIIIIIIIIIIIIIIIIIIIIIIIIII
AAAAAAAAAAAAAAAAAAAAAAAAAAAAAA111IIIIIIIIIIIIIIIIIIIIIIIIIIIIIII
AAAAAAAAAAAAAAAAAAAAAAAAAAAAAAA111IIIIIIIIIIIIIIIIIIIIIIIIIIIIII
AAAAAAAAAAAAAAAAAAAAAAAAAAAAAAAA111IIIIIIIIIIIIIIIIIIIIIIIIIIIII
AAAAAAAAAAAAAAAAAAAAAAAAAAAAAAAAA111IIIIIIIIIIIIIIIIIIIIIIIIIIII
AAAAAAAAAAAAAAAAAAAAAAAAAAAAAAAAA1111IIIIIIIIIIIIIIIIIIIIIIIIIII
AAAAAAAAAAAAAAAAAAAAAAAAAAAAAAAAAA1111IIIIIIIIIIIIIIIIIIIIIIIIII
AAAAAAAAAAAAAAAAAAAAAAAAAAAAAAAAAAA1111IIIIIIIIIIIIIIIIIIIIIIIII
AAAAAAAAAAAAAAAAAAAAAAAAAAAAAAAAAAAA1111IIIIIIIIIIIIIIIIIIIIIIII
AAAAAAAAAAAAAAAAAAAAAAAAAAAAAAAAAAAAA1111IIIIIIIIIIIIIIIIIIIIIII
AAAAAAAAAAAAAAAAAAAAAAAAAAAAAAAAAAAAAA1111IIIIIIIIIIIIIIIIIIIIII
AAAAAAAAAAAAAAAAAAAAAAAAAAAAAAAAAAAAAAA1111IIIIIIIIIIIIIIIIIIIII
AAAAAAAAAAAAAAAAAAAAAAAAAAAAAAAAAAAAAAAA1111IIIIIIIIIIIIIIIIIIII
AAAAAAAAAAAAAAAAAAAAAAAAAAAAAAAAAAAAAAAAA1111IIIIIIIIIIIIIIIIIII
AAAAAAAAAAAAAAAAAAAAAAAAAAAAAAAAAAAAAAAAAA1111IIIIIIIIIIIIIIIIII
AAAAAAAAAAAAAAAAAAAAAAAAAAAAAAAAAAAAAAAAAAA1111IIIIIIIIIIIIIIIII
AAAAAAAAAAAAAAAAAAAAAAAAAAAAAAAAAAAAAAAAAAAA1111IIIIIIIIIIIIIIII
AAAAAAAAAAAAAAAAAAAAAAAAAAAAAAAAAAAAAAAAAAAAA1111IIIIIIIIIIIIIII
AAAAAAAAAAAAAAAAAAAAAAAAAAAAAAAAAAAAAAAAAAAAAA1111IIIIIIIIIIIIII
AAAAAAAAAAAAAAAAAAAAAAAAAAAAAAAAAAAAAAAAAAAAAAA111IIIIIIIIIIIIII
AAAAAAAAAAAAAAAAAAAAAAAAAAAAAAAAAAAAAAAAAAAAAAAA111IIIIIIIIIIIII
AAAAAAAAAAAAAAAAAAAAAAAAAAAAAAAAAAAAAAAAAAAAAAAAA111IIIIIIIIIIII
AAAAAAAAAAAAAAAAAAAAAAAAAAAAAAAAAAAAAAAAAAAAAAAAAA111IIIIIIIIIII
AAAAAAAAAAAAAAAAAAAAAAAAAAAAAAAAAAAAAAAAAAAAAAAAAAA111IIIIIIIIII
AAAAAAAAAAAAAAAAAAAAAAAAAAAAAAAAAAAAAAAAAAAAAAAAAAAA111IIIIIIIII
AAAAAAAAAAAAAAAAAAAAAAAAAAAAAAAAAAAAAAAAAAAAAAAAAAAA1111IIIIIIII
AAAAAAAAAAAAAAAAAAAAAAAAAAAAAAAAAAAAAAAAAAAAAAAAAAAAA1111IIIIIII
AAAAAAAAAAAAAAAAAAAAAAAAAAAAAAAAAAAAAAAAAAAAAAAAAAAAAA1111IIIIII
AAAAAAAAAAAAAAAAAAAAAAAAAAAAAAAAAAAAAAAAAAAAAAAAAAAAAAA1111IIIII
AAAAAAAAAAAAAAAAAAAAAAAAAAAAAAAAAAAAAAAAAAAAAAAAAAAAAAAA1111IIII
AAAAAAAAAAAAAAAAAAAAAAAAAAAAAAAAAAAAAAAAAAAAAAAAAAAAAAAAA1111III
AAAAAAAAAAAAAAAAAAAAAAAAAAAAAAAAAAAAAAAAAAAAAAAAAAAAAAAAAA1111II
AAAAAAAAAAAAAAAAAAAAAAAAAAAAAAAAAAAAAAAAAAAAAAAAAAAAAAAAAAA111II
AAAAAAAAAAAAAAAAAAAAAAAAAAAAAAAAAAAAAAAAAAAAAAAAAAAAAAAAAAAA111I
AAAAAAAAAAAAAAAAAAAAAAAAAAAAAAAAAAAAAAAAAAAAAAAAAAAAAAAAAAAAA111
AAAAAAAAAAAAAAAAAAAAAAAAAAAAAAAAAAAAAAAAAAAAAAAAAAAAAAAAAAAAAA11
AAAAAAAAAAAAAAAAAAAAAAAAAAAAAAAAAAAAAAAAAAAAAAAAAAAAAAAAAAAAAAA1
AAAAAAAAAAAAAAAAAAAAAAAAAAAAAAAAAAAAAAAAAAAAAAAAAAAAAAAAAAAAAAAA
[MLOP] Prefetch Degree Mean: 3.72196
[MLOP] Prefetch Degree SD: 1.34947
[MLOP] Max Score Left Mean (%): 90.1904
[MLOP] Max Score Left SD (%): 17.8614
[MLOP] Max Score Right Mean (%): 94.7879
[MLOP] Max Score Right SD (%): 15.7574
LLC TOTAL     ACCESS:    1293016  HIT:     754710  MISS:     538306  HIT %:    58.3682  MISS %:    41.6318   MPKI: 2.69039
LLC LOAD      ACCESS:     636474  HIT:     621967  MISS:      14507  HIT %:    97.7207  MISS %:    2.27928   MPKI: 0.0725044
LLC RFO       ACCESS:     118052  HIT:        917  MISS:     117135  HIT %:   0.776776  MISS %:    99.2232   MPKI: 0.585428
LLC PREFETCH  ACCESS:     406119  HIT:       5844  MISS:     400275  HIT %:    1.43899  MISS %:     98.561   MPKI: 2.00053
LLC WRITEBACK ACCESS:     121297  HIT:     116108  MISS:       5189  HIT %:    95.7221  MISS %:    4.27793   MPKI: 0.025934

RAW hits: 714019
Loads Generated: 77868200
Loads sent to L1D: 77154176
Stores Generated: 16023089
Stores sent to L1D: 16023085

CPU 2 cumulative IPC: 1.27663 instructions: 200000002 cycles: 156662868
ITLB TOTAL     ACCESS:   28309565  HIT:   28309565  MISS:          0  HIT %:        100  MISS %:          0   MPKI: 0
ITLB LOAD      ACCESS:          0  HIT:          0  MISS:          0  HIT %:       -nan  MISS %:       -nan   MPKI: 0
ITLB RFO       ACCESS:          0  HIT:          0  MISS:          0  HIT %:       -nan  MISS %:       -nan   MPKI: 0
ITLB PREFETCH  ACCESS:          0  HIT:          0  MISS:          0  HIT %:       -nan  MISS %:       -nan   MPKI: 0
ITLB WRITEBACK ACCESS:          0  HIT:          0  MISS:          0  HIT %:       -nan  MISS %:       -nan   MPKI: 0
DTLB TOTAL     ACCESS:   56702870  HIT:   49136425  MISS:    7566445  HIT %:     86.656  MISS %:     13.344   MPKI: 37.8322
DTLB LOAD      ACCESS:          0  HIT:          0  MISS:          0  HIT %:       -nan  MISS %:       -nan   MPKI: 0
DTLB RFO       ACCESS:          0  HIT:          0  MISS:          0  HIT %:       -nan  MISS %:       -nan   MPKI: 0
DTLB PREFETCH  ACCESS:          0  HIT:          0  MISS:          0  HIT %:       -nan  MISS %:       -nan   MPKI: 0
DTLB WRITEBACK ACCESS:          0  HIT:          0  MISS:          0  HIT %:       -nan  MISS %:       -nan   MPKI: 0
STLB TOTAL     ACCESS:    7972962  HIT:    7964665  MISS:       8297  HIT %:    99.8959  MISS %:   0.104064   MPKI: 0.041485
STLB LOAD      ACCESS:          0  HIT:          0  MISS:          0  HIT %:       -nan  MISS %:       -nan   MPKI: 0
STLB RFO       ACCESS:          0  HIT:          0  MISS:          0  HIT %:       -nan  MISS %:       -nan   MPKI: 0
STLB PREFETCH  ACCESS:          0  HIT:          0  MISS:          0  HIT %:       -nan  MISS %:       -nan   MPKI: 0
STLB WRITEBACK ACCESS:          0  HIT:          0  MISS:          0  HIT %:       -nan  MISS %:       -nan   MPKI: 0
L1D TOTAL     ACCESS:   78647551  HIT:   63560599  MISS:   15086952  HIT %:     80.817  MISS %:     19.183   MPKI: 75.4348
L1D LOAD      ACCESS:   62379735  HIT:   48918281  MISS:   13461454  HIT %:    78.4201  MISS %:    21.5799   MPKI: 67.3073
L1D RFO       ACCESS:   15779411  HIT:   14577754  MISS:    1201657  HIT %:    92.3847  MISS %:    7.61535   MPKI: 6.00828
L1D PREFETCH  ACCESS:     488405  HIT:      64564  MISS:     423841  HIT %:    13.2194  MISS %:    86.7806   MPKI: 2.1192
L1D WRITEBACK ACCESS:          0  HIT:          0  MISS:          0  HIT %:       -nan  MISS %:       -nan   MPKI: 0
L1I TOTAL     ACCESS:   31548838  HIT:   25764404  MISS:    5784434  HIT %:    81.6651  MISS %:    18.3349   MPKI: 28.9222
L1I LOAD      ACCESS:   31548838  HIT:   25764404  MISS:    5784434  HIT %:    81.6651  MISS %:    18.3349   MPKI: 28.9222
L1I RFO       ACCESS:          0  HIT:          0  MISS:          0  HIT %:       -nan  MISS %:       -nan   MPKI: 0
L1I PREFETCH  ACCESS:          0  HIT:          0  MISS:          0  HIT %:       -nan  MISS %:       -nan   MPKI: 0
L1I WRITEBACK ACCESS:          0  HIT:          0  MISS:          0  HIT %:       -nan  MISS %:       -nan   MPKI: 0
L2C TOTAL     ACCESS:   22244903  HIT:   21053671  MISS:    1191232  HIT %:    94.6449  MISS %:    5.35508   MPKI: 5.95616
L2C LOAD      ACCESS:   19243702  HIT:   18593057  MISS:     650645  HIT %:    96.6189  MISS %:    3.38108   MPKI: 3.25322
L2C RFO       ACCESS:    1200078  HIT:    1081704  MISS:     118374  HIT %:    90.1361  MISS %:    9.86386   MPKI: 0.59187
L2C PREFETCH  ACCESS:     493021  HIT:      86713  MISS:     406308  HIT %:    17.5881  MISS %:    82.4119   MPKI: 2.03154
L2C WRITEBACK ACCESS:    1295548  HIT:    1290921  MISS:       4627  HIT %:    99.6429  MISS %:   0.357146   MPKI: 0.023135
PSCL5 TOTAL     ACCESS:       8297  HIT:       8297  MISS:          0  HIT %:        100  MISS %:          0   MPKI: 0
PSCL5 LOAD      ACCESS:          0  HIT:          0  MISS:          0  HIT %:       -nan  MISS %:       -nan   MPKI: 0
PSCL5 RFO       ACCESS:          0  HIT:          0  MISS:          0  HIT %:       -nan  MISS %:       -nan   MPKI: 0
PSCL5 PREFETCH  ACCESS:          0  HIT:          0  MISS:          0  HIT %:       -nan  MISS %:       -nan   MPKI: 0
PSCL5 WRITEBACK ACCESS:          0  HIT:          0  MISS:          0  HIT %:       -nan  MISS %:       -nan   MPKI: 0
PSCL4 TOTAL     ACCESS:       8297  HIT:       8297  MISS:          0  HIT %:        100  MISS %:          0   MPKI: 0
PSCL4 LOAD      ACCESS:          0  HIT:          0  MISS:          0  HIT %:       -nan  MISS %:       -nan   MPKI: 0
PSCL4 RFO       ACCESS:          0  HIT:          0  MISS:          0  HIT %:       -nan  MISS %:       -nan   MPKI: 0
PSCL4 PREFETCH  ACCESS:          0  HIT:          0  MISS:          0  HIT %:       -nan  MISS %:       -nan   MPKI: 0
PSCL4 WRITEBACK ACCESS:          0  HIT:          0  MISS:          0  HIT %:       -nan  MISS %:       -nan   MPKI: 0
PSCL3 TOTAL     ACCESS:       8285  HIT:       8280  MISS:          5  HIT %:    99.9396  MISS %:    0.06035   MPKI: 2.5e-05
PSCL3 LOAD      ACCESS:          0  HIT:          0  MISS:          0  HIT %:       -nan  MISS %:       -nan   MPKI: 0
PSCL3 RFO       ACCESS:          0  HIT:          0  MISS:          0  HIT %:       -nan  MISS %:       -nan   MPKI: 0
PSCL3 PREFETCH  ACCESS:          0  HIT:          0  MISS:          0  HIT %:       -nan  MISS %:       -nan   MPKI: 0
PSCL3 WRITEBACK ACCESS:          0  HIT:          0  MISS:          0  HIT %:       -nan  MISS %:       -nan   MPKI: 0
PSCL2 TOTAL     ACCESS:       8297  HIT:       4036  MISS:       4261  HIT %:    48.6441  MISS %:    51.3559   MPKI: 0.021305
PSCL2 LOAD      ACCESS:          0  HIT:          0  MISS:          0  HIT %:       -nan  MISS %:       -nan   MPKI: 0
PSCL2 RFO       ACCESS:          0  HIT:          0  MISS:          0  HIT %:       -nan  MISS %:       -nan   MPKI: 0
PSCL2 PREFETCH  ACCESS:          0  HIT:          0  MISS:          0  HIT %:       -nan  MISS %:       -nan   MPKI: 0
PSCL2 WRITEBACK ACCESS:          0  HIT:          0  MISS:          0  HIT %:       -nan  MISS %:       -nan   MPKI: 0
=== CPU 2 L1D Prefetcher Statistics ===
[MLOP] History of tracked zone:
IIIIIIIIIIIIIIIIIIIIIIIIIIIIIIIIIIIIIIIIIIIIIIIIIIIIIIIIIIIIIIII
IIIIIIIIIIIIIIIIIIIIIIIIIIIIIIIIIIIIIIIIIIIIIIIIIIAIIIIIIIIIIIII
IIIIIIIIIIIIIIIIIIIIIIIIIIIIIAIIIIIIIIIIIIIIIIIIIIAIIIIIIIIIIIII
IIIIIIIAIIIIIIIIIIIIIIIIIIIIIAIIIIIIIIIIIIIIIIIIIIAIIIIIIIIIIIII
IIIIIIIAIIIIIIIIIIIIIIIIIIIIAAIIIIIIIIIIIIIIIIIIIIAIIIIIIIIIIIII
IIIIIIIAIIIIIIIIIIIIIIIIIIIIAAIIIIIIIIIIIIIIIIIIIIAAIIIIIIIIIIII
IIIIIIIAAIIIIIIIIIIIIIIIIIIIAAIIIIIIIIIIIIIIIIIIIIAAIIIIIIIIIIII
IIIIIIIAAIIIIIIIIIIIIIIIIIIIAAAIIIIIIIIIIIIIIIIIIIAAIIIIIIIIIIII
IIIIIIIAAIIIIIIIIIIIIIIIIIIIAAAIIIIIIIIIIIIIIIIIIIAA2IIIIIIIIIII
IIIIIIIAAIIIIIIIIIIIIIIIIIIIAAA2IIIIIIIIIIIIIIIIIIAA2IIIIIIIIIII
IIIIIIIAA2IIIIIIIIIIIIIIIIIIAAA2IIIIIIIIIIIIIIIIIIAA2IIIIIIIIIII
IIIIIIIAA2IIIIIIIIIIIIIIIIIIAAA2IIIIIIIIIIIIIIIIIIAAA2IIIIIIIIII
IIIIIIIAAA2IIIIIIIIIIIIIIIIIAAA2IIIIIIIIIIIIIIIIIIAAA2IIIIIIIIII
IIIIIIIAAA2IIIIIIIIIIIIIIIIIAAAA2IIIIIIIIIIIIIIIIIAAA2IIIIIIIIII
IIIIIIIAAA2IIIIIIIIIIIIIIIIIAAAA2IIIIIIIIIIIIIIIIIAAAA2IIIIIIIII
IIIIIIIAAAA2IIIIIIIIIIIIIIIIAAAA2IIIIIIIIIIIIIIIIIAAAA2IIIIIIIII
IIIIIIIAAAA2IIIIIIIIIIIIIIIIAAAA11IIIIIIIIIIIIIIIIAAAA2IIIIIIIII
IIIIIIIAAAA11IIIIIIIIIIIIIIIAAAA11IIIIIIIIIIIIIIIIAAAA2IIIIIIIII
IIIIIIIAAAA11IIIIIIIIIIIIIIIAAAA11IIIIIIIIIIIIIIIIAAAA1IIIIIIIII
IIIIIIIAAAA11IIIIIIIIIIIIIIIAAAA11IIIIIIIIIIIIIIIIAAAA11IIIIIIII
IIIIIIIAAAA11IIIIIIIIIIIIIIIAAAAA11IIIIIIIIIIIIIIIAAAA11IIIIIIII
IIIIIIIAAAA11IIIIIIIIIIIIIIIAAAAA11IIIIIIIIIIIIIIIAAAAA11IIIIIII
IIIIIIIAAAAA11IIIIIIIIIIIIIIAAAAA11IIIIIIIIIIIIIIIAAAAA11IIIIIII
IIIIIIIAAAAA11IIIIIIIIIIIIIIAAAAAA11IIIIIIIIIIIIIIAAAAA11IIIIIII
IIIIIIIAAAAA11IIIIIIIIIIIIIIAAAAAA11IIIIIIIIIIIIIIAAAAA111IIIIII
IIIIIIIAAAAA11IIIIIIIIIIIIIIAAAAAA111IIIIIIIIIIIIIAAAAA111IIIIII
IIIIIIIAAAAA111IIIIIIIIIIIIIAAAAAA111IIIIIIIIIIIIIAAAAA111IIIIII
IIIIIIIAAAAA111IIIIIIIIIIIIIAAAAAA111IIIIIIIIIIIIIAAAAAA111IIIII
IIIIIIIAAAAAA111IIIIIIIIIIIIAAAAAA111IIIIIIIIIIIIIAAAAAA111IIIII
IIIIIIIAAAAAA111IIIIIIIIIIIIAAAAAAA111IIIIIIIIIIIIAAAAAA111IIIII
IIIIIIIAAAAAA111IIIIIIIIIIIIAAAAAAA111IIIIIIIIIIIIAAAAAAA111IIII
IIIIIIIAAAAAAA111IIIIIIIIIIIAAAAAAA111IIIIIIIIIIIIAAAAAAA111IIII
IIIIIIIAAAAAAA111IIIIIIIIIIIAAAAAAA111IIIIIIIIIIIIAAAAAAA1111III
IIIIIIIAAAAAAA111IIIIIIIIIIIAAAAAAA1111IIIIIIIIIIIAAAAAAA1111III
IIIIIIIAAAAAAA1111IIIIIIIIIIAAAAAAA1111IIIIIIIIIIIAAAAAAA1111III
IIIIIIIAAAAAAA1111IIIIIIIIIIAAAAAAAA1111IIIIIIIIIIAAAAAAA1111III
IIIIIIIAAAAAAA1111IIIIIIIIIIAAAAAAAA1111IIIIIIIIIIAAAAAAAA1111II
IIIIIIIAAAAAAAA1111IIIIIIIIIAAAAAAAA1111IIIIIIIIIIAAAAAAAA1111II
IIIIIIIAAAAAAAA1111IIIIIIIIIAAAAAAAAA1111IIIIIIIIIAAAAAAAA1111II
IIIIIIIAAAAAAAA1111IIIIIIIIIAAAAAAAAA1111IIIIIIIIIAAAAAAAAA1111I
IIIIIIIAAAAAAAAA1111IIIIIIIIAAAAAAAAA1111IIIIIIIIIAAAAAAAAA1111I
IIIIIIIAAAAAAAAA1111IIIIIIIIAAAAAAAAA1111IIIIIIIIIAAAAAAAAA11111
IIIIIIIAAAAAAAAA1111IIIIIIIIAAAAAAAAA111111IIIIIIIAAAAAAAAA11111
IIIIIIIAAAAAAAAA11111IIIIIIIAAAAAAAAA111111IIIIIIIAAAAAAAAA11111
IIIIIIIAAAAAAAAA111111IIIIIIAAAAAAAAA111111IIIIIIIAAAAAAAAA11111
IIIIIIIAAAAAAAAA111111IIIIIIAAAAAAAAAA111111IIIIIIAAAAAAAAA11111
IIIIIIIAAAAAAAAA111111IIIIIIAAAAAAAAAA111111IIIIIIAAAAAAAAAA1111
IIIIIIIAAAAAAAAAA111111IIIIIAAAAAAAAAA111111IIIIIIAAAAAAAAAA1111
IIIIIIIAAAAAAAAAA111111IIIIIAAAAAAAAAAA11111111IIIAAAAAAAAAA1111
IIIIIIIAAAAAAAAAA11111111IIIAAAAAAAAAAA11111111IIIAAAAAAAAAA1111
IIIIIIIAAAAAAAAAA11111111IIIAAAAAAAAAAA11111111IIIAAAAAAAAAAA111
IIIIIIIAAAAAAAAAAA11111111IIAAAAAAAAAAA11111111IIIAAAAAAAAAAA111
IIIIIIIAAAAAAAAAAA11111111IIAAAAAAAAAAAA11111111IIAAAAAAAAAAA111
IIIIIIIAAAAAAAAAAA11111111IIAAAAAAAAAAAA11111111IIAAAAAAAAAAAA11
IIIIIIIAAAAAAAAAAAA11111111IAAAAAAAAAAAA11111111IIAAAAAAAAAAAA11
IIIIIIIAAAAAAAAAAAA11111111IAAAAAAAAAAAAA1111111IIAAAAAAAAAAAA11
IIIIIIIAAAAAAAAAAAA11111111IAAAAAAAAAAAAA1111111IIAAAAAAAAAAAAA1
IIIIIIIAAAAAAAAAAAAA1111111IAAAAAAAAAAAAA1111111IIAAAAAAAAAAAAA1
IIIIIIIAAAAAAAAAAAAA1111111IAAAAAAAAAAAAAA111111IIAAAAAAAAAAAAA1
IIIIIIIAAAAAAAAAAAAA1111111IAAAAAAAAAAAAAA111111IIAAAAAAAAAAAAAA
IIIIIIIAAAAAAAAAAAAAA111111IAAAAAAAAAAAAAA111111IIAAAAAAAAAAAAAA
IIIIIIIAAAAAAAAAAAAAA111111IAAAAAAAAAAAAAAA11111IIAAAAAAAAAAAAAA
IIIIIIIAAAAAAAAAAAAAAA11111IAAAAAAAAAAAAAAA11111IIAAAAAAAAAAAAAA
IIIIIIIAAAAAAAAAAAAAAA11111IAAAAAAAAAAAAAAAA11111IAAAAAAAAAAAAAA
IIIIIIIAAAAAAAAAAAAAAAA11111AAAAAAAAAAAAAAAA11111IAAAAAAAAAAAAAA
IIIIIIIAAAAAAAAAAAAAAAA11111AAAAAAAAAAAAAAAAA11111AAAAAAAAAAAAAA
IIIIIIIAAAAAAAAAAAAAAAAA1111AAAAAAAAAAAAAAAAA11111AAAAAAAAAAAAAA
IIIIIIIAAAAAAAAAAAAAAAAA1111AAAAAAAAAAAAAAAAAA1111AAAAAAAAAAAAAA
IIIIIIIAAAAAAAAAAAAAAAAAA111AAAAAAAAAAAAAAAAAA1111AAAAAAAAAAAAAA
IIIIIIIAAAAAAAAAAAAAAAAAA111AAAAAAAAAAAAAAAAAAA111AAAAAAAAAAAAAA
IIIIIIIAAAAAAAAAAAAAAAAAAA11AAAAAAAAAAAAAAAAAAA111AAAAAAAAAAAAAA
IIIIIIIAAAAAAAAAAAAAAAAAAA11AAAAAAAAAAAAAAAAAAAA11AAAAAAAAAAAAAA
IIIIIIIAAAAAAAAAAAAAAAAAAAA1AAAAAAAAAAAAAAAAAAAA11AAAAAAAAAAAAAA
IIIIIIIAAAAAAAAAAAAAAAAAAAA1AAAAAAAAAAAAAAAAAAAAA1AAAAAAAAAAAAAA
IIIIIIIAAAAAAAAAAAAAAAAAAAAAAAAAAAAAAAAAAAAAAAAAA1AAAAAAAAAAAAAA
IIIIIIIAAAAAAAAAAAAAAAAAAAAAAAAAAAAAAAAAAAAAAAAAAAAAAAAAAAAAAAAA
A111IIIIIIIIIIIIIIIIIIIIIIIIIIIIIIIIIIIIIIIIIIIIIIIIIIIIIIIIIIII
AA111IIIIIIIIIIIIIIIIIIIIIIIIIIIIIIIIIIIIIIIIIIIIIIIIIIIIIIIIIII
AAA111IIIIIIIIIIIIIIIIIIIIIIIIIIIIIIIIIIIIIIIIIIIIIIIIIIIIIIIIII
AAAA111IIIIIIIIIIIIIIIIIIIIIIIIIIIIIIIIIIIIIIIIIIIIIIIIIIIIIIIII
AAAAA11IIIIIIIIIIIIIIIIIIIIIIIIIIIIIIIIIIIIIIIIIIIIIIIIIIIIIIIII
AAAAA111IIIIIIIIIIIIIIIIIIIIIIIIIIIIIIIIIIIIIIIIIIIIIIIIIIIIIIII
AAAAAA111IIIIIIIIIIIIIIIIIIIIIIIIIIIIIIIIIIIIIIIIIIIIIIIIIIIIIII
AAAAAAA111IIIIIIIIIIIIIIIIIIIIIIIIIIIIIIIIIIIIIIIIIIIIIIIIIIIIII
AAAAAAAA111IIIIIIIIIIIIIIIIIIIIIIIIIIIIIIIIIIIIIIIIIIIIIIIIIIIII
AAAAAAAAA111IIIIIIIIIIIIIIIIIIIIIIIIIIIIIIIIIIIIIIIIIIIIIIIIIIII
AAAAAAAAAA11IIIIIIIIIIIIIIIIIIIIIIIIIIIIIIIIIIIIIIIIIIIIIIIIIIII
AAAAAAAAAA1111IIIIIIIIIIIIIIIIIIIIIIIIIIIIIIIIIIIIIIIIIIIIIIIIII
AAAAAAAAAAA111IIIIIIIIIIIIIIIIIIIIIIIIIIIIIIIIIIIIIIIIIIIIIIIIII
AAAAAAAAAAA1111IIIIIIIIIIIIIIIIIIIIIIIIIIIIIIIIIIIIIIIIIIIIIIIII
AAAAAAAAAAAA1111IIIIIIIIIIIIIIIIIIIIIIIIIIIIIIIIIIIIIIIIIIIIIIII
AAAAAAAAAAAAA1111IIIIIIIIIIIIIIIIIIIIIIIIIIIIIIIIIIIIIIIIIIIIIII
AAAAAAAAAAAAAA111IIIIIIIIIIIIIIIIIIIIIIIIIIIIIIIIIIIIIIIIIIIIIII
AAAAAAAAAAAAAA1111IIIIIIIIIIIIIIIIIIIIIIIIIIIIIIIIIIIIIIIIIIIIII
AAAAAAAAAAAAAAA111IIIIIIIIIIIIIIIIIIIIIIIIIIIIIIIIIIIIIIIIIIIIII
AAAAAAAAAAAAAAA1111IIIIIIIIIIIIIIIIIIIIIIIIIIIIIIIIIIIIIIIIIIIII
AAAAAAAAAAAAAAAA1111IIIIIIIIIIIIIIIIIIIIIIIIIIIIIIIIIIIIIIIIIIII
AAAAAAAAAAAAAAAAA111IIIIIIIIIIIIIIIIIIIIIIIIIIIIIIIIIIIIIIIIIIII
AAAAAAAAAAAAAAAAAA111IIIIIIIIIIIIIIIIIIIIIIIIIIIIIIIIIIIIIIIIIII
AAAAAAAAAAAAAAAAAAA111IIIIIIIIIIIIIIIIIIIIIIIIIIIIIIIIIIIIIIIIII
AAAAAAAAAAAAAAAAAAAA111IIIIIIIIIIIIIIIIIIIIIIIIIIIIIIIIIIIIIIIII
AAAAAAAAAAAAAAAAAAAAA11IIIIIIIIIIIIIIIIIIIIIIIIIIIIIIIIIIIIIIIII
AAAAAAAAAAAAAAAAAAAAA111IIIIIIIIIIIIIIIIIIIIIIIIIIIIIIIIIIIIIIII
AAAAAAAAAAAAAAAAAAAAAA11IIIIIIIIIIIIIIIIIIIIIIIIIIIIIIIIIIIIIIII
AAAAAAAAAAAAAAAAAAAAAA111IIIIIIIIIIIIIIIIIIIIIIIIIIIIIIIIIIIIIII
AAAAAAAAAAAAAAAAAAAAAAA111IIIIIIIIIIIIIIIIIIIIIIIIIIIIIIIIIIIIII
AAAAAAAAAAAAAAAAAAAAAAAA111IIIIIIIIIIIIIIIIIIIIIIIIIIIIIIIIIIIII
AAAAAAAAAAAAAAAAAAAAAAAAA111IIIIIIIIIIIIIIIIIIIIIIIIIIIIIIIIIIII
AAAAAAAAAAAAAAAAAAAAAAAAAA11IIIIIIIIIIIIIIIIIIIIIIIIIIIIIIIIIIII
AAAAAAAAAAAAAAAAAAAAAAAAAA111IIIIIIIIIIIIIIIIIIIIIIIIIIIIIIIIIII
AAAAAAAAAAAAAAAAAAAAAAAAAAA111IIIIIIIIIIIIIIIIIIIIIIIIIIIIIIIIII
AAAAAAAAAAAAAAAAAAAAAAAAAAAA111IIIIIIIIIIIIIIIIIIIIIIIIIIIIIIIII
AAAAAAAAAAAAAAAAAAAAAAAAAAAAA111IIIIIIIIIIIIIIIIIIIIIIIIIIIIIIII
AAAAAAAAAAAAAAAAAAAAAAAAAAAAA1111IIIIIIIIIIIIIIIIIIIIIIIIIIIIIII
AAAAAAAAAAAAAAAAAAAAAAAAAAAAAA1111IIIIIIIIIIIIIIIIIIIIIIIIIIIIII
AAAAAAAAAAAAAAAAAAAAAAAAAAAAAAA1111IIIIIIIIIIIIIIIIIIIIIIIIIIIII
AAAAAAAAAAAAAAAAAAAAAAAAAAAAAAAA1111IIIIIIIIIIIIIIIIIIIIIIIIIIII
AAAAAAAAAAAAAAAAAAAAAAAAAAAAAAAAA1111IIIIIIIIIIIIIIIIIIIIIIIIIII
AAAAAAAAAAAAAAAAAAAAAAAAAAAAAAAAAA1111IIIIIIIIIIIIIIIIIIIIIIIIII
AAAAAAAAAAAAAAAAAAAAAAAAAAAAAAAAAAA1111IIIIIIIIIIIIIIIIIIIIIIIII
AAAAAAAAAAAAAAAAAAAAAAAAAAAAAAAAAAAA111IIIIIIIIIIIIIIIIIIIIIIIII
AAAAAAAAAAAAAAAAAAAAAAAAAAAAAAAAAAAA1111IIIIIIIIIIIIIIIIIIIIIIII
AAAAAAAAAAAAAAAAAAAAAAAAAAAAAAAAAAAAA1111IIIIIIIIIIIIIIIIIIIIIII
AAAAAAAAAAAAAAAAAAAAAAAAAAAAAAAAAAAAAA1111IIIIIIIIIIIIIIIIIIIIII
AAAAAAAAAAAAAAAAAAAAAAAAAAAAAAAAAAAAAAA1111IIIIIIIIIIIIIIIIIIIII
AAAAAAAAAAAAAAAAAAAAAAAAAAAAAAAAAAAAAAAA1111IIIIIIIIIIIIIIIIIIII
AAAAAAAAAAAAAAAAAAAAAAAAAAAAAAAAAAAAAAAAA1111IIIIIIIIIIIIIIIIIII
AAAAAAAAAAAAAAAAAAAAAAAAAAAAAAAAAAAAAAAAAA111111IIIIIIIIIIIIIIII
AAAAAAAAAAAAAAAAAAAAAAAAAAAAAAAAAAAAAAAAAAA111111IIIIIIIIIIIIIII
AAAAAAAAAAAAAAAAAAAAAAAAAAAAAAAAAAAAAAAAAAAA111111IIIIIIIIIIIIII
AAAAAAAAAAAAAAAAAAAAAAAAAAAAAAAAAAAAAAAAAAAAA111111IIIIIIIIIIIII
AAAAAAAAAAAAAAAAAAAAAAAAAAAAAAAAAAAAAAAAAAAAAA111111IIIIIIIIIIII
AAAAAAAAAAAAAAAAAAAAAAAAAAAAAAAAAAAAAAAAAAAAAAA111111IIIIIIIIIII
AAAAAAAAAAAAAAAAAAAAAAAAAAAAAAAAAAAAAAAAAAAAAAAA111111IIIIIIIIII
AAAAAAAAAAAAAAAAAAAAAAAAAAAAAAAAAAAAAAAAAAAAAAAAA11111IIIIIIIIII
AAAAAAAAAAAAAAAAAAAAAAAAAAAAAAAAAAAAAAAAAAAAAAAAAA1111IIIIIIIIII
AAAAAAAAAAAAAAAAAAAAAAAAAAAAAAAAAAAAAAAAAAAAAAAAAAA111IIIIIIIIII
AAAAAAAAAAAAAAAAAAAAAAAAAAAAAAAAAAAAAAAAAAAAAAAAAAAA111IIIIIIIII
AAAAAAAAAAAAAAAAAAAAAAAAAAAAAAAAAAAAAAAAAAAAAAAAAAAAA111IIIIIIII
AAAAAAAAAAAAAAAAAAAAAAAAAAAAAAAAAAAAAAAAAAAAAAAAAAAAAA111IIIIIII
AAAAAAAAAAAAAAAAAAAAAAAAAAAAAAAAAAAAAAAAAAAAAAAAAAAAAA1111IIIIII
AAAAAAAAAAAAAAAAAAAAAAAAAAAAAAAAAAAAAAAAAAAAAAAAAAAAAAA1111IIIII
AAAAAAAAAAAAAAAAAAAAAAAAAAAAAAAAAAAAAAAAAAAAAAAAAAAAAAAA1111IIII
AAAAAAAAAAAAAAAAAAAAAAAAAAAAAAAAAAAAAAAAAAAAAAAAAAAAAAAAA1111III
AAAAAAAAAAAAAAAAAAAAAAAAAAAAAAAAAAAAAAAAAAAAAAAAAAAAAAAAAA1111II
AAAAAAAAAAAAAAAAAAAAAAAAAAAAAAAAAAAAAAAAAAAAAAAAAAAAAAAAAAA1111I
AAAAAAAAAAAAAAAAAAAAAAAAAAAAAAAAAAAAAAAAAAAAAAAAAAAAAAAAAAAA1111
AAAAAAAAAAAAAAAAAAAAAAAAAAAAAAAAAAAAAAAAAAAAAAAAAAAAAAAAAAAAA111
AAAAAAAAAAAAAAAAAAAAAAAAAAAAAAAAAAAAAAAAAAAAAAAAAAAAAAAAAAAAAA11
AAAAAAAAAAAAAAAAAAAAAAAAAAAAAAAAAAAAAAAAAAAAAAAAAAAAAAAAAAAAAAA1
AAAAAAAAAAAAAAAAAAAAAAAAAAAAAAAAAAAAAAAAAAAAAAAAAAAAAAAAAAAAAAAA
[MLOP] Prefetch Degree Mean: 3.71566
[MLOP] Prefetch Degree SD: 1.35164
[MLOP] Max Score Left Mean (%): 90.195
[MLOP] Max Score Left SD (%): 17.8635
[MLOP] Max Score Right Mean (%): 94.7896
[MLOP] Max Score Right SD (%): 15.7747
LLC TOTAL     ACCESS:    1308266  HIT:     771092  MISS:     537174  HIT %:      58.94  MISS %:      41.06   MPKI: 2.68587
LLC LOAD      ACCESS:     650643  HIT:     636063  MISS:      14580  HIT %:    97.7591  MISS %:    2.24086   MPKI: 0.0729
LLC RFO       ACCESS:     118321  HIT:       1236  MISS:     117085  HIT %:    1.04462  MISS %:    98.9554   MPKI: 0.585425
LLC PREFETCH  ACCESS:     406308  HIT:       6600  MISS:     399708  HIT %:    1.62438  MISS %:    98.3756   MPKI: 1.99854
LLC WRITEBACK ACCESS:     121716  HIT:     117133  MISS:       4583  HIT %:    96.2347  MISS %:    3.76532   MPKI: 0.022915

RAW hits: 713713
Loads Generated: 77835368
Loads sent to L1D: 77121653
Stores Generated: 16016313
Stores sent to L1D: 16016313

CPU 3 cumulative IPC: 1.27775 instructions: 200175391 cycles: 156662868
ITLB TOTAL     ACCESS:   28333678  HIT:   28333678  MISS:          0  HIT %:        100  MISS %:          0   MPKI: 0
ITLB LOAD      ACCESS:          0  HIT:          0  MISS:          0  HIT %:       -nan  MISS %:       -nan   MPKI: 0
ITLB RFO       ACCESS:          0  HIT:          0  MISS:          0  HIT %:       -nan  MISS %:       -nan   MPKI: 0
ITLB PREFETCH  ACCESS:          0  HIT:          0  MISS:          0  HIT %:       -nan  MISS %:       -nan   MPKI: 0
ITLB WRITEBACK ACCESS:          0  HIT:          0  MISS:          0  HIT %:       -nan  MISS %:       -nan   MPKI: 0
DTLB TOTAL     ACCESS:   56750506  HIT:   49177581  MISS:    7572925  HIT %:    86.6558  MISS %:    13.3442   MPKI: 37.8314
DTLB LOAD      ACCESS:          0  HIT:          0  MISS:          0  HIT %:       -nan  MISS %:       -nan   MPKI: 0
DTLB RFO       ACCESS:          0  HIT:          0  MISS:          0  HIT %:       -nan  MISS %:       -nan   MPKI: 0
DTLB PREFETCH  ACCESS:          0  HIT:          0  MISS:          0  HIT %:       -nan  MISS %:       -nan   MPKI: 0
DTLB WRITEBACK ACCESS:          0  HIT:          0  MISS:          0  HIT %:       -nan  MISS %:       -nan   MPKI: 0
STLB TOTAL     ACCESS:    7981603  HIT:    7973298  MISS:       8305  HIT %:    99.8959  MISS %:   0.104052   MPKI: 0.0414886
STLB LOAD      ACCESS:          0  HIT:          0  MISS:          0  HIT %:       -nan  MISS %:       -nan   MPKI: 0
STLB RFO       ACCESS:          0  HIT:          0  MISS:          0  HIT %:       -nan  MISS %:       -nan   MPKI: 0
STLB PREFETCH  ACCESS:          0  HIT:          0  MISS:          0  HIT %:       -nan  MISS %:       -nan   MPKI: 0
STLB WRITEBACK ACCESS:          0  HIT:          0  MISS:          0  HIT %:       -nan  MISS %:       -nan   MPKI: 0
L1D TOTAL     ACCESS:   78715032  HIT:   63614153  MISS:   15100879  HIT %:    80.8158  MISS %:    19.1842   MPKI: 75.4382
L1D LOAD      ACCESS:   62434694  HIT:   48960280  MISS:   13474414  HIT %:    78.4184  MISS %:    21.5816   MPKI: 67.313
L1D RFO       ACCESS:   15793124  HIT:   14590209  MISS:    1202915  HIT %:    92.3833  MISS %:     7.6167   MPKI: 6.00931
L1D PREFETCH  ACCESS:     487214  HIT:      63664  MISS:     423550  HIT %:    13.0669  MISS %:    86.9331   MPKI: 2.11589
L1D WRITEBACK ACCESS:          0  HIT:          0  MISS:          0  HIT %:       -nan  MISS %:       -nan   MPKI: 0
L1I TOTAL     ACCESS:   31576503  HIT:   25786993  MISS:    5789510  HIT %:    81.6651  MISS %:    18.3349   MPKI: 28.9222
L1I LOAD      ACCESS:   31576503  HIT:   25786993  MISS:    5789510  HIT %:    81.6651  MISS %:    18.3349   MPKI: 28.9222
L1I RFO       ACCESS:          0  HIT:          0  MISS:          0  HIT %:       -nan  MISS %:       -nan   MPKI: 0
L1I PREFETCH  ACCESS:          0  HIT:          0  MISS:          0  HIT %:       -nan  MISS %:       -nan   MPKI: 0
L1I WRITEBACK ACCESS:          0  HIT:          0  MISS:          0  HIT %:       -nan  MISS %:       -nan   MPKI: 0
L2C TOTAL     ACCESS:   22271274  HIT:   21094377  MISS:    1176897  HIT %:    94.7156  MISS %:    5.28437   MPKI: 5.87933
L2C LOAD      ACCESS:   19261724  HIT:   18624718  MISS:     637006  HIT %:    96.6929  MISS %:    3.30711   MPKI: 3.18224
L2C RFO       ACCESS:    1201366  HIT:    1083478  MISS:     117888  HIT %:    90.1872  MISS %:    9.81283   MPKI: 0.588924
L2C PREFETCH  ACCESS:     498715  HIT:      92244  MISS:     406471  HIT %:    18.4963  MISS %:    81.5037   MPKI: 2.03057
L2C WRITEBACK ACCESS:    1296905  HIT:    1292554  MISS:       4351  HIT %:    99.6645  MISS %:   0.335491   MPKI: 0.0217359
PSCL5 TOTAL     ACCESS:       8305  HIT:       8305  MISS:          0  HIT %:        100  MISS %:          0   MPKI: 0
PSCL5 LOAD      ACCESS:          0  HIT:          0  MISS:          0  HIT %:       -nan  MISS %:       -nan   MPKI: 0
PSCL5 RFO       ACCESS:          0  HIT:          0  MISS:          0  HIT %:       -nan  MISS %:       -nan   MPKI: 0
PSCL5 PREFETCH  ACCESS:          0  HIT:          0  MISS:          0  HIT %:       -nan  MISS %:       -nan   MPKI: 0
PSCL5 WRITEBACK ACCESS:          0  HIT:          0  MISS:          0  HIT %:       -nan  MISS %:       -nan   MPKI: 0
PSCL4 TOTAL     ACCESS:       8305  HIT:       8305  MISS:          0  HIT %:        100  MISS %:          0   MPKI: 0
PSCL4 LOAD      ACCESS:          0  HIT:          0  MISS:          0  HIT %:       -nan  MISS %:       -nan   MPKI: 0
PSCL4 RFO       ACCESS:          0  HIT:          0  MISS:          0  HIT %:       -nan  MISS %:       -nan   MPKI: 0
PSCL4 PREFETCH  ACCESS:          0  HIT:          0  MISS:          0  HIT %:       -nan  MISS %:       -nan   MPKI: 0
PSCL4 WRITEBACK ACCESS:          0  HIT:          0  MISS:          0  HIT %:       -nan  MISS %:       -nan   MPKI: 0
PSCL3 TOTAL     ACCESS:       8293  HIT:       8288  MISS:          5  HIT %:    99.9397  MISS %:  0.0602918   MPKI: 2.49781e-05
PSCL3 LOAD      ACCESS:          0  HIT:          0  MISS:          0  HIT %:       -nan  MISS %:       -nan   MPKI: 0
PSCL3 RFO       ACCESS:          0  HIT:          0  MISS:          0  HIT %:       -nan  MISS %:       -nan   MPKI: 0
PSCL3 PREFETCH  ACCESS:          0  HIT:          0  MISS:          0  HIT %:       -nan  MISS %:       -nan   MPKI: 0
PSCL3 WRITEBACK ACCESS:          0  HIT:          0  MISS:          0  HIT %:       -nan  MISS %:       -nan   MPKI: 0
PSCL2 TOTAL     ACCESS:       8305  HIT:       4042  MISS:       4263  HIT %:    48.6695  MISS %:    51.3305   MPKI: 0.0212963
PSCL2 LOAD      ACCESS:          0  HIT:          0  MISS:          0  HIT %:       -nan  MISS %:       -nan   MPKI: 0
PSCL2 RFO       ACCESS:          0  HIT:          0  MISS:          0  HIT %:       -nan  MISS %:       -nan   MPKI: 0
PSCL2 PREFETCH  ACCESS:          0  HIT:          0  MISS:          0  HIT %:       -nan  MISS %:       -nan   MPKI: 0
PSCL2 WRITEBACK ACCESS:          0  HIT:          0  MISS:          0  HIT %:       -nan  MISS %:       -nan   MPKI: 0
=== CPU 3 L1D Prefetcher Statistics ===
[MLOP] History of tracked zone:
IIIIIIIIIIIIIIIIIIIIIIIIIIIIIIIIIIIIIIIIIIIIIIIIIIIIIIIIIIIIIIII
IIIIIIIIIIIIIIIIIIIIIIIIIIIIIIIIIIIIIIIIIIIIIIIIIIAIIIIIIIIIIIII
IIIIIIIIIIIIIIIIIIIIIIIIIIIIIAIIIIIIIIIIIIIIIIIIIIAIIIIIIIIIIIII
IIIIIIIAIIIIIIIIIIIIIIIIIIIIIAIIIIIIIIIIIIIIIIIIIIAIIIIIIIIIIIII
IIIIIIIAIIIIIIIIIIIIIIIIIIIIAAIIIIIIIIIIIIIIIIIIIIAIIIIIIIIIIIII
IIIIIIIAIIIIIIIIIIIIIIIIIIIIAAIIIIIIIIIIIIIIIIIIIIAAIIIIIIIIIIII
IIIIIIIAAIIIIIIIIIIIIIIIIIIIAAIIIIIIIIIIIIIIIIIIIIAAIIIIIIIIIIII
IIIIIIIAAIIIIIIIIIIIIIIIIIIIAAAIIIIIIIIIIIIIIIIIIIAAIIIIIIIIIIII
IIIIIIIAAIIIIIIIIIIIIIIIIIIIAAAIIIIIIIIIIIIIIIIIIIAA1IIIIIIIIIII
IIIIIIIAAIIIIIIIIIIIIIIIIIIIAAA1IIIIIIIIIIIIIIIIIIAA1IIIIIIIIIII
IIIIIIIAA1IIIIIIIIIIIIIIIIIIAAA1IIIIIIIIIIIIIIIIIIAA1IIIIIIIIIII
IIIIIIIAA1IIIIIIIIIIIIIIIIIIAAA1IIIIIIIIIIIIIIIIIIAAA1IIIIIIIIII
IIIIIIIAAA1IIIIIIIIIIIIIIIIIAAA1IIIIIIIIIIIIIIIIIIAAA1IIIIIIIIII
IIIIIIIAAA1IIIIIIIIIIIIIIIIIAAAA1IIIIIIIIIIIIIIIIIAAA1IIIIIIIIII
IIIIIIIAAA1IIIIIIIIIIIIIIIIIAAAA1IIIIIIIIIIIIIIIIIAAAA1IIIIIIIII
IIIIIIIAAAA1IIIIIIIIIIIIIIIIAAAA1IIIIIIIIIIIIIIIIIAAAA1IIIIIIIII
IIIIIIIAAAA1IIIIIIIIIIIIIIIIAAAA11IIIIIIIIIIIIIIIIAAAA1IIIIIIIII
IIIIIIIAAAA1IIIIIIIIIIIIIIIIAAAA11IIIIIIIIIIIIIIIIAAAA11IIIIIIII
IIIIIIIAAAA11IIIIIIIIIIIIIIIAAAA11IIIIIIIIIIIIIIIIAAAA11IIIIIIII
IIIIIIIAAAA11IIIIIIIIIIIIIIIAAAAA11IIIIIIIIIIIIIIIAAAA11IIIIIIII
IIIIIIIAAAA11IIIIIIIIIIIIIIIAAAAA11IIIIIIIIIIIIIIIAAAAA11IIIIIII
IIIIIIIAAAAA11IIIIIIIIIIIIIIAAAAA11IIIIIIIIIIIIIIIAAAAA11IIIIIII
IIIIIIIAAAAA11IIIIIIIIIIIIIIAAAAAA11IIIIIIIIIIIIIIAAAAA11IIIIIII
IIIIIIIAAAAA11IIIIIIIIIIIIIIAAAAAA11IIIIIIIIIIIIIIAAAAA111IIIIII
IIIIIIIAAAAA11IIIIIIIIIIIIIIAAAAAA111IIIIIIIIIIIIIAAAAA111IIIIII
IIIIIIIAAAAA111IIIIIIIIIIIIIAAAAAA111IIIIIIIIIIIIIAAAAA111IIIIII
IIIIIIIAAAAA111IIIIIIIIIIIIIAAAAAA111IIIIIIIIIIIIIAAAAAA111IIIII
IIIIIIIAAAAAA111IIIIIIIIIIIIAAAAAA111IIIIIIIIIIIIIAAAAAA111IIIII
IIIIIIIAAAAAA111IIIIIIIIIIIIAAAAAAA111IIIIIIIIIIIIAAAAAA111IIIII
IIIIIIIAAAAAA111IIIIIIIIIIIIAAAAAAA111IIIIIIIIIIIIAAAAAAA111IIII
IIIIIIIAAAAAAA111IIIIIIIIIIIAAAAAAA111IIIIIIIIIIIIAAAAAAA111IIII
IIIIIIIAAAAAAA111IIIIIIIIIIIAAAAAAA111IIIIIIIIIIIIAAAAAAA1111III
IIIIIIIAAAAAAA111IIIIIIIIIIIAAAAAAA1111IIIIIIIIIIIAAAAAAA1111III
IIIIIIIAAAAAAA1111IIIIIIIIIIAAAAAAA1111IIIIIIIIIIIAAAAAAA1111III
IIIIIIIAAAAAAA1111IIIIIIIIIIAAAAAAAA1111IIIIIIIIIIAAAAAAA1111III
IIIIIIIAAAAAAA1111IIIIIIIIIIAAAAAAAA1111IIIIIIIIIIAAAAAAAA1111II
IIIIIIIAAAAAAAA1111IIIIIIIIIAAAAAAAA1111IIIIIIIIIIAAAAAAAA1111II
IIIIIIIAAAAAAAA1111IIIIIIIIIAAAAAAAAA1111IIIIIIIIIAAAAAAAA1111II
IIIIIIIAAAAAAAA1111IIIIIIIIIAAAAAAAAA1111IIIIIIIIIAAAAAAAAA11111
IIIIIIIAAAAAAAAA111111IIIIIIAAAAAAAAA1111IIIIIIIIIAAAAAAAAA11111
IIIIIIIAAAAAAAAA111111IIIIIIAAAAAAAAA111111IIIIIIIAAAAAAAAA11111
IIIIIIIAAAAAAAAA111111IIIIIIAAAAAAAAAA111111IIIIIIAAAAAAAAA11111
IIIIIIIAAAAAAAAA111111IIIIIIAAAAAAAAAA111111IIIIIIAAAAAAAAAA1111
IIIIIIIAAAAAAAAAA111111IIIIIAAAAAAAAAA111111IIIIIIAAAAAAAAAA1111
IIIIIIIAAAAAAAAAA111111IIIIIAAAAAAAAAA11111111IIIIAAAAAAAAAA1111
IIIIIIIAAAAAAAAAA1111111IIIIAAAAAAAAAA11111111IIIIAAAAAAAAAA1111
IIIIIIIAAAAAAAAAA1111111IIIIAAAAAAAAAAA1111111IIIIAAAAAAAAAA1111
IIIIIIIAAAAAAAAAA11111111IIIAAAAAAAAAAA1111111IIIIAAAAAAAAAA1111
IIIIIIIAAAAAAAAAA11111111IIIAAAAAAAAAAA11111111IIIAAAAAAAAAA1111
IIIIIIIAAAAAAAAAA11111111IIIAAAAAAAAAAA11111111IIIAAAAAAAAAAA111
IIIIIIIAAAAAAAAAAA11111111IIAAAAAAAAAAA11111111IIIAAAAAAAAAAA111
IIIIIIIAAAAAAAAAAA11111111IIAAAAAAAAAAAA11111111IIAAAAAAAAAAA111
IIIIIIIAAAAAAAAAAA11111111IIAAAAAAAAAAAA11111111IIAAAAAAAAAAAA11
IIIIIIIAAAAAAAAAAAA11111111IAAAAAAAAAAAA11111111IIAAAAAAAAAAAA11
IIIIIIIAAAAAAAAAAAA11111111IAAAAAAAAAAAAA1111111IIAAAAAAAAAAAA11
IIIIIIIAAAAAAAAAAAA11111111IAAAAAAAAAAAAA1111111IIAAAAAAAAAAAAA1
IIIIIIIAAAAAAAAAAAAA1111111IAAAAAAAAAAAAA1111111IIAAAAAAAAAAAAA1
IIIIIIIAAAAAAAAAAAAA1111111IAAAAAAAAAAAAAA111111IIAAAAAAAAAAAAA1
IIIIIIIAAAAAAAAAAAAA1111111IAAAAAAAAAAAAAA111111IIAAAAAAAAAAAAAA
IIIIIIIAAAAAAAAAAAAAA111111IAAAAAAAAAAAAAA111111IIAAAAAAAAAAAAAA
IIIIIIIAAAAAAAAAAAAAA111111IAAAAAAAAAAAAAAA11111IIAAAAAAAAAAAAAA
IIIIIIIAAAAAAAAAAAAAAA11111IAAAAAAAAAAAAAAA11111IIAAAAAAAAAAAAAA
IIIIIIIAAAAAAAAAAAAAAA11111IAAAAAAAAAAAAAAAA11111IAAAAAAAAAAAAAA
IIIIIIIAAAAAAAAAAAAAAAA11111AAAAAAAAAAAAAAAA11111IAAAAAAAAAAAAAA
IIIIIIIAAAAAAAAAAAAAAAA11111AAAAAAAAAAAAAAAAA11111AAAAAAAAAAAAAA
IIIIIIIAAAAAAAAAAAAAAAAA1111AAAAAAAAAAAAAAAAA11111AAAAAAAAAAAAAA
IIIIIIIAAAAAAAAAAAAAAAAA1111AAAAAAAAAAAAAAAAAA1111AAAAAAAAAAAAAA
IIIIIIIAAAAAAAAAAAAAAAAAA111AAAAAAAAAAAAAAAAAA1111AAAAAAAAAAAAAA
IIIIIIIAAAAAAAAAAAAAAAAAA111AAAAAAAAAAAAAAAAAAA111AAAAAAAAAAAAAA
IIIIIIIAAAAAAAAAAAAAAAAAAA11AAAAAAAAAAAAAAAAAAA111AAAAAAAAAAAAAA
IIIIIIIAAAAAAAAAAAAAAAAAAA11AAAAAAAAAAAAAAAAAAAA11AAAAAAAAAAAAAA
IIIIIIIAAAAAAAAAAAAAAAAAAAA1AAAAAAAAAAAAAAAAAAAA11AAAAAAAAAAAAAA
IIIIIIIAAAAAAAAAAAAAAAAAAAA1AAAAAAAAAAAAAAAAAAAAA1AAAAAAAAAAAAAA
IIIIIIIAAAAAAAAAAAAAAAAAAAAAAAAAAAAAAAAAAAAAAAAAA1AAAAAAAAAAAAAA
IIIIIIIAAAAAAAAAAAAAAAAAAAAAAAAAAAAAAAAAAAAAAAAAAAAAAAAAAAAAAAAA
A111IIIIIIIIIIIIIIIIIIIIIIIIIIIIIIIIIIIIIIIIIIIIIIIIIIIIIIIIIIII
AA111IIIIIIIIIIIIIIIIIIIIIIIIIIIIIIIIIIIIIIIIIIIIIIIIIIIIIIIIIII
AAA111IIIIIIIIIIIIIIIIIIIIIIIIIIIIIIIIIIIIIIIIIIIIIIIIIIIIIIIIII
AAAA111IIIIIIIIIIIIIIIIIIIIIIIIIIIIIIIIIIIIIIIIIIIIIIIIIIIIIIIII
AAAAA111IIIIIIIIIIIIIIIIIIIIIIIIIIIIIIIIIIIIIIIIIIIIIIIIIIIIIIII
AAAAAA111IIIIIIIIIIIIIIIIIIIIIIIIIIIIIIIIIIIIIIIIIIIIIIIIIIIIIII
AAAAAAA111IIIIIIIIIIIIIIIIIIIIIIIIIIIIIIIIIIIIIIIIIIIIIIIIIIIIII
AAAAAAAA111IIIIIIIIIIIIIIIIIIIIIIIIIIIIIIIIIIIIIIIIIIIIIIIIIIIII
AAAAAAAAA11IIIIIIIIIIIIIIIIIIIIIIIIIIIIIIIIIIIIIIIIIIIIIIIIIIIII
AAAAAAAAA111IIIIIIIIIIIIIIIIIIIIIIIIIIIIIIIIIIIIIIIIIIIIIIIIIIII
AAAAAAAAAA11IIIIIIIIIIIIIIIIIIIIIIIIIIIIIIIIIIIIIIIIIIIIIIIIIIII
AAAAAAAAAA111IIIIIIIIIIIIIIIIIIIIIIIIIIIIIIIIIIIIIIIIIIIIIIIIIII
AAAAAAAAAAA11IIIIIIIIIIIIIIIIIIIIIIIIIIIIIIIIIIIIIIIIIIIIIIIIIII
AAAAAAAAAAA11111IIIIIIIIIIIIIIIIIIIIIIIIIIIIIIIIIIIIIIIIIIIIIIII
AAAAAAAAAAAA11111IIIIIIIIIIIIIIIIIIIIIIIIIIIIIIIIIIIIIIIIIIIIIII
AAAAAAAAAAAAA11111IIIIIIIIIIIIIIIIIIIIIIIIIIIIIIIIIIIIIIIIIIIIII
AAAAAAAAAAAAAA1111IIIIIIIIIIIIIIIIIIIIIIIIIIIIIIIIIIIIIIIIIIIIII
AAAAAAAAAAAAAA11111IIIIIIIIIIIIIIIIIIIIIIIIIIIIIIIIIIIIIIIIIIIII
AAAAAAAAAAAAAAA1111IIIIIIIIIIIIIIIIIIIIIIIIIIIIIIIIIIIIIIIIIIIII
AAAAAAAAAAAAAAA11111IIIIIIIIIIIIIIIIIIIIIIIIIIIIIIIIIIIIIIIIIIII
AAAAAAAAAAAAAAAA11111IIIIIIIIIIIIIIIIIIIIIIIIIIIIIIIIIIIIIIIIIII
AAAAAAAAAAAAAAAAA1111IIIIIIIIIIIIIIIIIIIIIIIIIIIIIIIIIIIIIIIIIII
AAAAAAAAAAAAAAAAA11111IIIIIIIIIIIIIIIIIIIIIIIIIIIIIIIIIIIIIIIIII
AAAAAAAAAAAAAAAAAA1111IIIIIIIIIIIIIIIIIIIIIIIIIIIIIIIIIIIIIIIIII
[...]
IIIIIIIAAAAAAAAA1111IIIIIIIIAAAAAAAAA1111IIIIIIIIIAAAAAAAAA1111I
IIIIIIIAAAAAAAAA1111IIIIIIIIAAAAAAAAA1111IIIIIIIIIAAAAAAAAA11111
IIIIIIIAAAAAAAAA1111IIIIIIIIAAAAAAAAA111111IIIIIIIAAAAAAAAA11111
IIIIIIIAAAAAAAAA11111IIIIIIIAAAAAAAAA111111IIIIIIIAAAAAAAAA11111
IIIIIIIAAAAAAAAA111111IIIIIIAAAAAAAAA111111IIIIIIIAAAAAAAAA11111
IIIIIIIAAAAAAAAA111111IIIIIIAAAAAAAAAA111111IIIIIIAAAAAAAAA11111
IIIIIIIAAAAAAAAA111111IIIIIIAAAAAAAAAA111111IIIIIIAAAAAAAAAA1111
IIIIIIIAAAAAAAAAA111111IIIIIAAAAAAAAAA111111IIIIIIAAAAAAAAAA1111
IIIIIIIAAAAAAAAAA111111IIIIIAAAAAAAAAAA11111111IIIAAAAAAAAAA1111
IIIIIIIAAAAAAAAAA11111111IIIAAAAAAAAAAA11111111IIIAAAAAAAAAA1111
IIIIIIIAAAAAAAAAA11111111IIIAAAAAAAAAAA11111111IIIAAAAAAAAAAA111
IIIIIIIAAAAAAAAAAA11111111IIAAAAAAAAAAA11111111IIIAAAAAAAAAAA111
IIIIIIIAAAAAAAAAAA11111111IIAAAAAAAAAAAA11111111IIAAAAAAAAAAA111
IIIIIIIAAAAAAAAAAA11111111IIAAAAAAAAAAAA11111111IIAAAAAAAAAAAA11
IIIIIIIAAAAAAAAAAAA11111111IAAAAAAAAAAAA11111111IIAAAAAAAAAAAA11
IIIIIIIAAAAAAAAAAAA11111111IAAAAAAAAAAAAA1111111IIAAAAAAAAAAAA11
IIIIIIIAAAAAAAAAAAA11111111IAAAAAAAAAAAAA1111111IIAAAAAAAAAAAAA1
IIIIIIIAAAAAAAAAAAAA1111111IAAAAAAAAAAAAA1111111IIAAAAAAAAAAAAA1
IIIIIIIAAAAAAAAAAAAA1111111IAAAAAAAAAAAAAA111111IIAAAAAAAAAAAAA1
IIIIIIIAAAAAAAAAAAAA1111111IAAAAAAAAAAAAAA111111IIAAAAAAAAAAAAAA
IIIIIIIAAAAAAAAAAAAAA111111IAAAAAAAAAAAAAA111111IIAAAAAAAAAAAAAA
IIIIIIIAAAAAAAAAAAAAA111111IAAAAAAAAAAAAAAA11111IIAAAAAAAAAAAAAA
IIIIIIIAAAAAAAAAAAAAAA11111IAAAAAAAAAAAAAAA11111IIAAAAAAAAAAAAAA
IIIIIIIAAAAAAAAAAAAAAA11111IAAAAAAAAAAAAAAAA11111IAAAAAAAAAAAAAA
IIIIIIIAAAAAAAAAAAAAAAA11111AAAAAAAAAAAAAAAA11111IAAAAAAAAAAAAAA
IIIIIIIAAAAAAAAAAAAAAAA11111AAAAAAAAAAAAAAAAA11111AAAAAAAAAAAAAA
IIIIIIIAAAAAAAAAAAAAAAAA1111AAAAAAAAAAAAAAAAA11111AAAAAAAAAAAAAA
IIIIIIIAAAAAAAAAAAAAAAAA1111AAAAAAAAAAAAAAAAAA1111AAAAAAAAAAAAAA
IIIIIIIAAAAAAAAAAAAAAAAAA111AAAAAAAAAAAAAAAAAA1111AAAAAAAAAAAAAA
IIIIIIIAAAAAAAAAAAAAAAAAA111AAAAAAAAAAAAAAAAAAA111AAAAAAAAAAAAAA
IIIIIIIAAAAAAAAAAAAAAAAAAA11AAAAAAAAAAAAAAAAAAA111AAAAAAAAAAAAAA
IIIIIIIAAAAAAAAAAAAAAAAAAA11AAAAAAAAAAAAAAAAAAAA11AAAAAAAAAAAAAA
IIIIIIIAAAAAAAAAAAAAAAAAAAA1AAAAAAAAAAAAAAAAAAAA11AAAAAAAAAAAAAA
IIIIIIIAAAAAAAAAAAAAAAAAAAA1AAAAAAAAAAAAAAAAAAAAA1AAAAAAAAAAAAAA
IIIIIIIAAAAAAAAAAAAAAAAAAAAAAAAAAAAAAAAAAAAAAAAAA1AAAAAAAAAAAAAA
IIIIIIIAAAAAAAAAAAAAAAAAAAAAAAAAAAAAAAAAAAAAAAAAAAAAAAAAAAAAAAAA
A111IIIIIIIIIIIIIIIIIIIIIIIIIIIIIIIIIIIIIIIIIIIIIIIIIIIIIIIIIIII
AA111IIIIIIIIIIIIIIIIIIIIIIIIIIIIIIIIIIIIIIIIIIIIIIIIIIIIIIIIIII
AAA111IIIIIIIIIIIIIIIIIIIIIIIIIIIIIIIIIIIIIIIIIIIIIIIIIIIIIIIIII
AAAA111IIIIIIIIIIIIIIIIIIIIIIIIIIIIIIIIIIIIIIIIIIIIIIIIIIIIIIIII
AAAAA11IIIIIIIIIIIIIIIIIIIIIIIIIIIIIIIIIIIIIIIIIIIIIIIIIIIIIIIII
AAAAA111IIIIIIIIIIIIIIIIIIIIIIIIIIIIIIIIIIIIIIIIIIIIIIIIIIIIIIII
AAAAAA111IIIIIIIIIIIIIIIIIIIIIIIIIIIIIIIIIIIIIIIIIIIIIIIIIIIIIII
AAAAAAA111IIIIIIIIIIIIIIIIIIIIIIIIIIIIIIIIIIIIIIIIIIIIIIIIIIIIII
AAAAAAAA111IIIIIIIIIIIIIIIIIIIIIIIIIIIIIIIIIIIIIIIIIIIIIIIIIIIII
AAAAAAAAA111IIIIIIIIIIIIIIIIIIIIIIIIIIIIIIIIIIIIIIIIIIIIIIIIIIII
AAAAAAAAAA11IIIIIIIIIIIIIIIIIIIIIIIIIIIIIIIIIIIIIIIIIIIIIIIIIIII
AAAAAAAAAA1111IIIIIIIIIIIIIIIIIIIIIIIIIIIIIIIIIIIIIIIIIIIIIIIIII
AAAAAAAAAAA111IIIIIIIIIIIIIIIIIIIIIIIIIIIIIIIIIIIIIIIIIIIIIIIIII
AAAAAAAAAAA1111IIIIIIIIIIIIIIIIIIIIIIIIIIIIIIIIIIIIIIIIIIIIIIIII
AAAAAAAAAAAA1111IIIIIIIIIIIIIIIIIIIIIIIIIIIIIIIIIIIIIIIIIIIIIIII
AAAAAAAAAAAAA1111IIIIIIIIIIIIIIIIIIIIIIIIIIIIIIIIIIIIIIIIIIIIIII
AAAAAAAAAAAAAA111IIIIIIIIIIIIIIIIIIIIIIIIIIIIIIIIIIIIIIIIIIIIIII
AAAAAAAAAAAAAA1111IIIIIIIIIIIIIIIIIIIIIIIIIIIIIIIIIIIIIIIIIIIIII
AAAAAAAAAAAAAAA111IIIIIIIIIIIIIIIIIIIIIIIIIIIIIIIIIIIIIIIIIIIIII
AAAAAAAAAAAAAAA1111IIIIIIIIIIIIIIIIIIIIIIIIIIIIIIIIIIIIIIIIIIIII
AAAAAAAAAAAAAAAA1111IIIIIIIIIIIIIIIIIIIIIIIIIIIIIIIIIIIIIIIIIIII
AAAAAAAAAAAAAAAAA111IIIIIIIIIIIIIIIIIIIIIIIIIIIIIIIIIIIIIIIIIIII
AAAAAAAAAAAAAAAAAA111IIIIIIIIIIIIIIIIIIIIIIIIIIIIIIIIIIIIIIIIIII
AAAAAAAAAAAAAAAAAAA111IIIIIIIIIIIIIIIIIIIIIIIIIIIIIIIIIIIIIIIIII
AAAAAAAAAAAAAAAAAAAA111IIIIIIIIIIIIIIIIIIIIIIIIIIIIIIIIIIIIIIIII
AAAAAAAAAAAAAAAAAAAAA11IIIIIIIIIIIIIIIIIIIIIIIIIIIIIIIIIIIIIIIII
AAAAAAAAAAAAAAAAAAAAA111IIIIIIIIIIIIIIIIIIIIIIIIIIIIIIIIIIIIIIII
AAAAAAAAAAAAAAAAAAAAAA11IIIIIIIIIIIIIIIIIIIIIIIIIIIIIIIIIIIIIIII
AAAAAAAAAAAAAAAAAAAAAA111IIIIIIIIIIIIIIIIIIIIIIIIIIIIIIIIIIIIIII
AAAAAAAAAAAAAAAAAAAAAAA111IIIIIIIIIIIIIIIIIIIIIIIIIIIIIIIIIIIIII
AAAAAAAAAAAAAAAAAAAAAAAA111IIIIIIIIIIIIIIIIIIIIIIIIIIIIIIIIIIIII
AAAAAAAAAAAAAAAAAAAAAAAAA111IIIIIIIIIIIIIIIIIIIIIIIIIIIIIIIIIIII
AAAAAAAAAAAAAAAAAAAAAAAAAA11IIIIIIIIIIIIIIIIIIIIIIIIIIIIIIIIIIII
AAAAAAAAAAAAAAAAAAAAAAAAAA111IIIIIIIIIIIIIIIIIIIIIIIIIIIIIIIIIII
AAAAAAAAAAAAAAAAAAAAAAAAAAA111IIIIIIIIIIIIIIIIIIIIIIIIIIIIIIIIII
AAAAAAAAAAAAAAAAAAAAAAAAAAAA111IIIIIIIIIIIIIIIIIIIIIIIIIIIIIIIII
AAAAAAAAAAAAAAAAAAAAAAAAAAAAA111IIIIIIIIIIIIIIIIIIIIIIIIIIIIIIII
AAAAAAAAAAAAAAAAAAAAAAAAAAAAA1111IIIIIIIIIIIIIIIIIIIIIIIIIIIIIII
AAAAAAAAAAAAAAAAAAAAAAAAAAAAAA1111IIIIIIIIIIIIIIIIIIIIIIIIIIIIII
AAAAAAAAAAAAAAAAAAAAAAAAAAAAAAA1111IIIIIIIIIIIIIIIIIIIIIIIIIIIII
AAAAAAAAAAAAAAAAAAAAAAAAAAAAAAAA1111IIIIIIIIIIIIIIIIIIIIIIIIIIII
AAAAAAAAAAAAAAAAAAAAAAAAAAAAAAAAA1111IIIIIIIIIIIIIIIIIIIIIIIIIII
AAAAAAAAAAAAAAAAAAAAAAAAAAAAAAAAAA1111IIIIIIIIIIIIIIIIIIIIIIIIII
AAAAAAAAAAAAAAAAAAAAAAAAAAAAAAAAAAA1111IIIIIIIIIIIIIIIIIIIIIIIII
AAAAAAAAAAAAAAAAAAAAAAAAAAAAAAAAAAAA111IIIIIIIIIIIIIIIIIIIIIIIII
AAAAAAAAAAAAAAAAAAAAAAAAAAAAAAAAAAAA1111IIIIIIIIIIIIIIIIIIIIIIII
AAAAAAAAAAAAAAAAAAAAAAAAAAAAAAAAAAAAA1111IIIIIIIIIIIIIIIIIIIIIII
AAAAAAAAAAAAAAAAAAAAAAAAAAAAAAAAAAAAAA1111IIIIIIIIIIIIIIIIIIIIII
AAAAAAAAAAAAAAAAAAAAAAAAAAAAAAAAAAAAAAA1111IIIIIIIIIIIIIIIIIIIII
AAAAAAAAAAAAAAAAAAAAAAAAAAAAAAAAAAAAAAAA1111IIIIIIIIIIIIIIIIIIII
AAAAAAAAAAAAAAAAAAAAAAAAAAAAAAAAAAAAAAAAA1111IIIIIIIIIIIIIIIIIII
AAAAAAAAAAAAAAAAAAAAAAAAAAAAAAAAAAAAAAAAAA111111IIIIIIIIIIIIIIII
AAAAAAAAAAAAAAAAAAAAAAAAAAAAAAAAAAAAAAAAAAA111111IIIIIIIIIIIIIII
AAAAAAAAAAAAAAAAAAAAAAAAAAAAAAAAAAAAAAAAAAAA111111IIIIIIIIIIIIII
AAAAAAAAAAAAAAAAAAAAAAAAAAAAAAAAAAAAAAAAAAAAA111111IIIIIIIIIIIII
AAAAAAAAAAAAAAAAAAAAAAAAAAAAAAAAAAAAAAAAAAAAAA111111IIIIIIIIIIII
AAAAAAAAAAAAAAAAAAAAAAAAAAAAAAAAAAAAAAAAAAAAAAA111111IIIIIIIIIII
AAAAAAAAAAAAAAAAAAAAAAAAAAAAAAAAAAAAAAAAAAAAAAAA111111IIIIIIIIII
AAAAAAAAAAAAAAAAAAAAAAAAAAAAAAAAAAAAAAAAAAAAAAAAA11111IIIIIIIIII
AAAAAAAAAAAAAAAAAAAAAAAAAAAAAAAAAAAAAAAAAAAAAAAAAA1111IIIIIIIIII
AAAAAAAAAAAAAAAAAAAAAAAAAAAAAAAAAAAAAAAAAAAAAAAAAAA111IIIIIIIIII
AAAAAAAAAAAAAAAAAAAAAAAAAAAAAAAAAAAAAAAAAAAAAAAAAAAA111IIIIIIIII
AAAAAAAAAAAAAAAAAAAAAAAAAAAAAAAAAAAAAAAAAAAAAAAAAAAAA111IIIIIIII
AAAAAAAAAAAAAAAAAAAAAAAAAAAAAAAAAAAAAAAAAAAAAAAAAAAAAA111IIIIIII
AAAAAAAAAAAAAAAAAAAAAAAAAAAAAAAAAAAAAAAAAAAAAAAAAAAAAA1111IIIIII
AAAAAAAAAAAAAAAAAAAAAAAAAAAAAAAAAAAAAAAAAAAAAAAAAAAAAAA1111IIIII
AAAAAAAAAAAAAAAAAAAAAAAAAAAAAAAAAAAAAAAAAAAAAAAAAAAAAAAA1111IIII
AAAAAAAAAAAAAAAAAAAAAAAAAAAAAAAAAAAAAAAAAAAAAAAAAAAAAAAAA1111III
AAAAAAAAAAAAAAAAAAAAAAAAAAAAAAAAAAAAAAAAAAAAAAAAAAAAAAAAAA1111II
AAAAAAAAAAAAAAAAAAAAAAAAAAAAAAAAAAAAAAAAAAAAAAAAAAAAAAAAAAA1111I
AAAAAAAAAAAAAAAAAAAAAAAAAAAAAAAAAAAAAAAAAAAAAAAAAAAAAAAAAAAA1111
AAAAAAAAAAAAAAAAAAAAAAAAAAAAAAAAAAAAAAAAAAAAAAAAAAAAAAAAAAAAA111
AAAAAAAAAAAAAAAAAAAAAAAAAAAAAAAAAAAAAAAAAAAAAAAAAAAAAAAAAAAAAA11
AAAAAAAAAAAAAAAAAAAAAAAAAAAAAAAAAAAAAAAAAAAAAAAAAAAAAAAAAAAAAAA1
AAAAAAAAAAAAAAAAAAAAAAAAAAAAAAAAAAAAAAAAAAAAAAAAAAAAAAAAAAAAAAAA
[MLOP] Prefetch Degree Mean: 3.71566
[MLOP] Prefetch Degree SD: 1.35164
[MLOP] Max Score Left Mean (%): 90.195
[MLOP] Max Score Left SD (%): 17.8635
[MLOP] Max Score Right Mean (%): 94.7896
[MLOP] Max Score Right SD (%): 15.7747
=== CPU 3 L1D Prefetcher Statistics ===
[MLOP] History of tracked zone:
IIIIIIIIIIIIIIIIIIIIIIIIIIIIIIIIIIIIIIIIIIIIIIIIIIIIIIIIIIIIIIII
IIIIIIIIIIIIIIIIIIIIIIIIIIIIIIIIIIIIIIIIIIIIIIIIIIAIIIIIIIIIIIII
IIIIIIIIIIIIIIIIIIIIIIIIIIIIIAIIIIIIIIIIIIIIIIIIIIAIIIIIIIIIIIII
IIIIIIIAIIIIIIIIIIIIIIIIIIIIIAIIIIIIIIIIIIIIIIIIIIAIIIIIIIIIIIII
IIIIIIIAIIIIIIIIIIIIIIIIIIIIAAIIIIIIIIIIIIIIIIIIIIAIIIIIIIIIIIII
IIIIIIIAIIIIIIIIIIIIIIIIIIIIAAIIIIIIIIIIIIIIIIIIIIAAIIIIIIIIIIII
IIIIIIIAAIIIIIIIIIIIIIIIIIIIAAIIIIIIIIIIIIIIIIIIIIAAIIIIIIIIIIII
IIIIIIIAAIIIIIIIIIIIIIIIIIIIAAAIIIIIIIIIIIIIIIIIIIAAIIIIIIIIIIII
IIIIIIIAAIIIIIIIIIIIIIIIIIIIAAAIIIIIIIIIIIIIIIIIIIAA1IIIIIIIIIII
IIIIIIIAAIIIIIIIIIIIIIIIIIIIAAA1IIIIIIIIIIIIIIIIIIAA1IIIIIIIIIII
IIIIIIIAA1IIIIIIIIIIIIIIIIIIAAA1IIIIIIIIIIIIIIIIIIAA1IIIIIIIIIII
IIIIIIIAA1IIIIIIIIIIIIIIIIIIAAA1IIIIIIIIIIIIIIIIIIAAA1IIIIIIIIII
IIIIIIIAAA1IIIIIIIIIIIIIIIIIAAA1IIIIIIIIIIIIIIIIIIAAA1IIIIIIIIII
IIIIIIIAAA1IIIIIIIIIIIIIIIIIAAAA1IIIIIIIIIIIIIIIIIAAA1IIIIIIIIII
IIIIIIIAAA1IIIIIIIIIIIIIIIIIAAAA1IIIIIIIIIIIIIIIIIAAAA1IIIIIIIII
IIIIIIIAAAA1IIIIIIIIIIIIIIIIAAAA1IIIIIIIIIIIIIIIIIAAAA1IIIIIIIII
IIIIIIIAAAA1IIIIIIIIIIIIIIIIAAAA11IIIIIIIIIIIIIIIIAAAA1IIIIIIIII
IIIIIIIAAAA1IIIIIIIIIIIIIIIIAAAA11IIIIIIIIIIIIIIIIAAAA11IIIIIIII
IIIIIIIAAAA11IIIIIIIIIIIIIIIAAAA11IIIIIIIIIIIIIIIIAAAA11IIIIIIII
IIIIIIIAAAA11IIIIIIIIIIIIIIIAAAAA11IIIIIIIIIIIIIIIAAAA11IIIIIIII
IIIIIIIAAAA11IIIIIIIIIIIIIIIAAAAA11IIIIIIIIIIIIIIIAAAAA11IIIIIII
IIIIIIIAAAAA11IIIIIIIIIIIIIIAAAAA11IIIIIIIIIIIIIIIAAAAA11IIIIIII
IIIIIIIAAAAA11IIIIIIIIIIIIIIAAAAAA11IIIIIIIIIIIIIIAAAAA11IIIIIII
IIIIIIIAAAAA11IIIIIIIIIIIIIIAAAAAA11IIIIIIIIIIIIIIAAAAA111IIIIII
IIIIIIIAAAAA11IIIIIIIIIIIIIIAAAAAA111IIIIIIIIIIIIIAAAAA111IIIIII
IIIIIIIAAAAA111IIIIIIIIIIIIIAAAAAA111IIIIIIIIIIIIIAAAAA111IIIIII
IIIIIIIAAAAA111IIIIIIIIIIIIIAAAAAA111IIIIIIIIIIIIIAAAAAA111IIIII
IIIIIIIAAAAAA111IIIIIIIIIIIIAAAAAA111IIIIIIIIIIIIIAAAAAA111IIIII
IIIIIIIAAAAAA111IIIIIIIIIIIIAAAAAAA111IIIIIIIIIIIIAAAAAA111IIIII
IIIIIIIAAAAAA111IIIIIIIIIIIIAAAAAAA111IIIIIIIIIIIIAAAAAAA111IIII
IIIIIIIAAAAAAA111IIIIIIIIIIIAAAAAAA111IIIIIIIIIIIIAAAAAAA111IIII
IIIIIIIAAAAAAA111IIIIIIIIIIIAAAAAAA111IIIIIIIIIIIIAAAAAAA1111III
IIIIIIIAAAAAAA111IIIIIIIIIIIAAAAAAA1111IIIIIIIIIIIAAAAAAA1111III
IIIIIIIAAAAAAA1111IIIIIIIIIIAAAAAAA1111IIIIIIIIIIIAAAAAAA1111III
IIIIIIIAAAAAAA1111IIIIIIIIIIAAAAAAAA1111IIIIIIIIIIAAAAAAA1111III
IIIIIIIAAAAAAA1111IIIIIIIIIIAAAAAAAA1111IIIIIIIIIIAAAAAAAA1111II
IIIIIIIAAAAAAAA1111IIIIIIIIIAAAAAAAA1111IIIIIIIIIIAAAAAAAA1111II
IIIIIIIAAAAAAAA1111IIIIIIIIIAAAAAAAAA1111IIIIIIIIIAAAAAAAA1111II
IIIIIIIAAAAAAAA1111IIIIIIIIIAAAAAAAAA1111IIIIIIIIIAAAAAAAAA11111
IIIIIIIAAAAAAAAA111111IIIIIIAAAAAAAAA1111IIIIIIIIIAAAAAAAAA11111
IIIIIIIAAAAAAAAA111111IIIIIIAAAAAAAAA111111IIIIIIIAAAAAAAAA11111
IIIIIIIAAAAAAAAA111111IIIIIIAAAAAAAAAA111111IIIIIIAAAAAAAAA11111
IIIIIIIAAAAAAAAA111111IIIIIIAAAAAAAAAA111111IIIIIIAAAAAAAAAA1111
IIIIIIIAAAAAAAAAA111111IIIIIAAAAAAAAAA111111IIIIIIAAAAAAAAAA1111
IIIIIIIAAAAAAAAAA111111IIIIIAAAAAAAAAA11111111IIIIAAAAAAAAAA1111
IIIIIIIAAAAAAAAAA1111111IIIIAAAAAAAAAA11111111IIIIAAAAAAAAAA1111
IIIIIIIAAAAAAAAAA1111111IIIIAAAAAAAAAAA1111111IIIIAAAAAAAAAA1111
IIIIIIIAAAAAAAAAA11111111IIIAAAAAAAAAAA1111111IIIIAAAAAAAAAA1111
IIIIIIIAAAAAAAAAA11111111IIIAAAAAAAAAAA11111111IIIAAAAAAAAAA1111
IIIIIIIAAAAAAAAAA11111111IIIAAAAAAAAAAA11111111IIIAAAAAAAAAAA111
IIIIIIIAAAAAAAAAAA11111111IIAAAAAAAAAAA11111111IIIAAAAAAAAAAA111
IIIIIIIAAAAAAAAAAA11111111IIAAAAAAAAAAAA11111111IIAAAAAAAAAAA111
IIIIIIIAAAAAAAAAAA11111111IIAAAAAAAAAAAA11111111IIAAAAAAAAAAAA11
IIIIIIIAAAAAAAAAAAA11111111IAAAAAAAAAAAA11111111IIAAAAAAAAAAAA11
IIIIIIIAAAAAAAAAAAA11111111IAAAAAAAAAAAAA1111111IIAAAAAAAAAAAA11
IIIIIIIAAAAAAAAAAAA11111111IAAAAAAAAAAAAA1111111IIAAAAAAAAAAAAA1
IIIIIIIAAAAAAAAAAAAA1111111IAAAAAAAAAAAAA1111111IIAAAAAAAAAAAAA1
IIIIIIIAAAAAAAAAAAAA1111111IAAAAAAAAAAAAAA111111IIAAAAAAAAAAAAA1
IIIIIIIAAAAAAAAAAAAA1111111IAAAAAAAAAAAAAA111111IIAAAAAAAAAAAAAA
IIIIIIIAAAAAAAAAAAAAA111111IAAAAAAAAAAAAAA111111IIAAAAAAAAAAAAAA
IIIIIIIAAAAAAAAAAAAAA111111IAAAAAAAAAAAAAAA11111IIAAAAAAAAAAAAAA
IIIIIIIAAAAAAAAAAAAAAA11111IAAAAAAAAAAAAAAA11111IIAAAAAAAAAAAAAA
IIIIIIIAAAAAAAAAAAAAAA11111IAAAAAAAAAAAAAAAA11111IAAAAAAAAAAAAAA
IIIIIIIAAAAAAAAAAAAAAAA11111AAAAAAAAAAAAAAAA11111IAAAAAAAAAAAAAA
IIIIIIIAAAAAAAAAAAAAAAA11111AAAAAAAAAAAAAAAAA11111AAAAAAAAAAAAAA
IIIIIIIAAAAAAAAAAAAAAAAA1111AAAAAAAAAAAAAAAAA11111AAAAAAAAAAAAAA
IIIIIIIAAAAAAAAAAAAAAAAA1111AAAAAAAAAAAAAAAAAA1111AAAAAAAAAAAAAA
IIIIIIIAAAAAAAAAAAAAAAAAA111AAAAAAAAAAAAAAAAAA1111AAAAAAAAAAAAAA
IIIIIIIAAAAAAAAAAAAAAAAAA111AAAAAAAAAAAAAAAAAAA111AAAAAAAAAAAAAA
IIIIIIIAAAAAAAAAAAAAAAAAAA11AAAAAAAAAAAAAAAAAAA111AAAAAAAAAAAAAA
IIIIIIIAAAAAAAAAAAAAAAAAAA11AAAAAAAAAAAAAAAAAAAA11AAAAAAAAAAAAAA
IIIIIIIAAAAAAAAAAAAAAAAAAAA1AAAAAAAAAAAAAAAAAAAA11AAAAAAAAAAAAAA
IIIIIIIAAAAAAAAAAAAAAAAAAAA1AAAAAAAAAAAAAAAAAAAAA1AAAAAAAAAAAAAA
IIIIIIIAAAAAAAAAAAAAAAAAAAAAAAAAAAAAAAAAAAAAAAAAA1AAAAAAAAAAAAAA
IIIIIIIAAAAAAAAAAAAAAAAAAAAAAAAAAAAAAAAAAAAAAAAAAAAAAAAAAAAAAAAA
A111IIIIIIIIIIIIIIIIIIIIIIIIIIIIIIIIIIIIIIIIIIIIIIIIIIIIIIIIIIII
AA111IIIIIIIIIIIIIIIIIIIIIIIIIIIIIIIIIIIIIIIIIIIIIIIIIIIIIIIIIII
AAA111IIIIIIIIIIIIIIIIIIIIIIIIIIIIIIIIIIIIIIIIIIIIIIIIIIIIIIIIII
AAAA111IIIIIIIIIIIIIIIIIIIIIIIIIIIIIIIIIIIIIIIIIIIIIIIIIIIIIIIII
AAAAA111IIIIIIIIIIIIIIIIIIIIIIIIIIIIIIIIIIIIIIIIIIIIIIIIIIIIIIII
AAAAAA111IIIIIIIIIIIIIIIIIIIIIIIIIIIIIIIIIIIIIIIIIIIIIIIIIIIIIII
AAAAAAA111IIIIIIIIIIIIIIIIIIIIIIIIIIIIIIIIIIIIIIIIIIIIIIIIIIIIII
AAAAAAAA111IIIIIIIIIIIIIIIIIIIIIIIIIIIIIIIIIIIIIIIIIIIIIIIIIIIII
AAAAAAAAA11IIIIIIIIIIIIIIIIIIIIIIIIIIIIIIIIIIIIIIIIIIIIIIIIIIIII
AAAAAAAAA111IIIIIIIIIIIIIIIIIIIIIIIIIIIIIIIIIIIIIIIIIIIIIIIIIIII
AAAAAAAAAA11IIIIIIIIIIIIIIIIIIIIIIIIIIIIIIIIIIIIIIIIIIIIIIIIIIII
AAAAAAAAAA111IIIIIIIIIIIIIIIIIIIIIIIIIIIIIIIIIIIIIIIIIIIIIIIIIII
AAAAAAAAAAA11IIIIIIIIIIIIIIIIIIIIIIIIIIIIIIIIIIIIIIIIIIIIIIIIIII
AAAAAAAAAAA11111IIIIIIIIIIIIIIIIIIIIIIIIIIIIIIIIIIIIIIIIIIIIIIII
AAAAAAAAAAAA11111IIIIIIIIIIIIIIIIIIIIIIIIIIIIIIIIIIIIIIIIIIIIIII
AAAAAAAAAAAAA11111IIIIIIIIIIIIIIIIIIIIIIIIIIIIIIIIIIIIIIIIIIIIII
AAAAAAAAAAAAAA1111IIIIIIIIIIIIIIIIIIIIIIIIIIIIIIIIIIIIIIIIIIIIII
AAAAAAAAAAAAAA11111IIIIIIIIIIIIIIIIIIIIIIIIIIIIIIIIIIIIIIIIIIIII
AAAAAAAAAAAAAAA1111IIIIIIIIIIIIIIIIIIIIIIIIIIIIIIIIIIIIIIIIIIIII
AAAAAAAAAAAAAAA11111IIIIIIIIIIIIIIIIIIIIIIIIIIIIIIIIIIIIIIIIIIII
AAAAAAAAAAAAAAAA11111IIIIIIIIIIIIIIIIIIIIIIIIIIIIIIIIIIIIIIIIIII
AAAAAAAAAAAAAAAAA1111IIIIIIIIIIIIIIIIIIIIIIIIIIIIIIIIIIIIIIIIIII
AAAAAAAAAAAAAAAAA11111IIIIIIIIIIIIIIIIIIIIIIIIIIIIIIIIIIIIIIIIII
AAAAAAAAAAAAAAAAAA1111IIIIIIIIIIIIIIIIIIIIIIIIIIIIIIIIIIIIIIIIII
AAAAAAAAAAAAAAAAAAA111IIIIIIIIIIIIIIIIIIIIIIIIIIIIIIIIIIIIIIIIII
AAAAAAAAAAAAAAAAAAAA111IIIIIIIIIIIIIIIIIIIIIIIIIIIIIIIIIIIIIIIII
AAAAAAAAAAAAAAAAAAAAA11IIIIIIIIIIIIIIIIIIIIIIIIIIIIIIIIIIIIIIIII
AAAAAAAAAAAAAAAAAAAAA111IIIIIIIIIIIIIIIIIIIIIIIIIIIIIIIIIIIIIIII
AAAAAAAAAAAAAAAAAAAAAA11IIIIIIIIIIIIIIIIIIIIIIIIIIIIIIIIIIIIIIII
AAAAAAAAAAAAAAAAAAAAAA111IIIIIIIIIIIIIIIIIIIIIIIIIIIIIIIIIIIIIII
AAAAAAAAAAAAAAAAAAAAAAA11IIIIIIIIIIIIIIIIIIIIIIIIIIIIIIIIIIIIIII
AAAAAAAAAAAAAAAAAAAAAAA111IIIIIIIIIIIIIIIIIIIIIIIIIIIIIIIIIIIIII
AAAAAAAAAAAAAAAAAAAAAAAA111IIIIIIIIIIIIIIIIIIIIIIIIIIIIIIIIIIIII
AAAAAAAAAAAAAAAAAAAAAAAAA111IIIIIIIIIIIIIIIIIIIIIIIIIIIIIIIIIIII
AAAAAAAAAAAAAAAAAAAAAAAAAA111IIIIIIIIIIIIIIIIIIIIIIIIIIIIIIIIIII
AAAAAAAAAAAAAAAAAAAAAAAAAAA111IIIIIIIIIIIIIIIIIIIIIIIIIIIIIIIIII
AAAAAAAAAAAAAAAAAAAAAAAAAAAA111IIIIIIIIIIIIIIIIIIIIIIIIIIIIIIIII
AAAAAAAAAAAAAAAAAAAAAAAAAAAAA111IIIIIIIIIIIIIIIIIIIIIIIIIIIIIIII
AAAAAAAAAAAAAAAAAAAAAAAAAAAAAA111IIIIIIIIIIIIIIIIIIIIIIIIIIIIIII
AAAAAAAAAAAAAAAAAAAAAAAAAAAAAA1111IIIIIIIIIIIIIIIIIIIIIIIIIIIIII
AAAAAAAAAAAAAAAAAAAAAAAAAAAAAAA1111IIIIIIIIIIIIIIIIIIIIIIIIIIIII
AAAAAAAAAAAAAAAAAAAAAAAAAAAAAAAA1111IIIIIIIIIIIIIIIIIIIIIIIIIIII
AAAAAAAAAAAAAAAAAAAAAAAAAAAAAAAAA1111IIIIIIIIIIIIIIIIIIIIIIIIIII
AAAAAAAAAAAAAAAAAAAAAAAAAAAAAAAAAA1111IIIIIIIIIIIIIIIIIIIIIIIIII
AAAAAAAAAAAAAAAAAAAAAAAAAAAAAAAAAAA1111IIIIIIIIIIIIIIIIIIIIIIIII
AAAAAAAAAAAAAAAAAAAAAAAAAAAAAAAAAAAA1111IIIIIIIIIIIIIIIIIIIIIIII
AAAAAAAAAAAAAAAAAAAAAAAAAAAAAAAAAAAAA1111IIIIIIIIIIIIIIIIIIIIIII
AAAAAAAAAAAAAAAAAAAAAAAAAAAAAAAAAAAAAA1111IIIIIIIIIIIIIIIIIIIIII
AAAAAAAAAAAAAAAAAAAAAAAAAAAAAAAAAAAAAAA1111IIIIIIIIIIIIIIIIIIIII
AAAAAAAAAAAAAAAAAAAAAAAAAAAAAAAAAAAAAAAA1111IIIIIIIIIIIIIIIIIIII
AAAAAAAAAAAAAAAAAAAAAAAAAAAAAAAAAAAAAAAAA1111IIIIIIIIIIIIIIIIIII
AAAAAAAAAAAAAAAAAAAAAAAAAAAAAAAAAAAAAAAAAA1111IIIIIIIIIIIIIIIIII
AAAAAAAAAAAAAAAAAAAAAAAAAAAAAAAAAAAAAAAAAAA1111111IIIIIIIIIIIIII
AAAAAAAAAAAAAAAAAAAAAAAAAAAAAAAAAAAAAAAAAAAA1111111IIIIIIIIIIIII
AAAAAAAAAAAAAAAAAAAAAAAAAAAAAAAAAAAAAAAAAAAAA1111111IIIIIIIIIIII
AAAAAAAAAAAAAAAAAAAAAAAAAAAAAAAAAAAAAAAAAAAAAA1111111IIIIIIIIIII
AAAAAAAAAAAAAAAAAAAAAAAAAAAAAAAAAAAAAAAAAAAAAAA1111111IIIIIIIIII
AAAAAAAAAAAAAAAAAAAAAAAAAAAAAAAAAAAAAAAAAAAAAAAA1111111IIIIIIIII
AAAAAAAAAAAAAAAAAAAAAAAAAAAAAAAAAAAAAAAAAAAAAAAAA1111111IIIIIIII
AAAAAAAAAAAAAAAAAAAAAAAAAAAAAAAAAAAAAAAAAAAAAAAAAA111111IIIIIIII
AAAAAAAAAAAAAAAAAAAAAAAAAAAAAAAAAAAAAAAAAAAAAAAAAAA11111IIIIIIII
AAAAAAAAAAAAAAAAAAAAAAAAAAAAAAAAAAAAAAAAAAAAAAAAAAAA1111IIIIIIII
AAAAAAAAAAAAAAAAAAAAAAAAAAAAAAAAAAAAAAAAAAAAAAAAAAAAA111IIIIIIII
AAAAAAAAAAAAAAAAAAAAAAAAAAAAAAAAAAAAAAAAAAAAAAAAAAAAAA111IIIIIII
AAAAAAAAAAAAAAAAAAAAAAAAAAAAAAAAAAAAAAAAAAAAAAAAAAAAAAA1111IIIII
AAAAAAAAAAAAAAAAAAAAAAAAAAAAAAAAAAAAAAAAAAAAAAAAAAAAAAAA1111IIII
AAAAAAAAAAAAAAAAAAAAAAAAAAAAAAAAAAAAAAAAAAAAAAAAAAAAAAAAA1111III
AAAAAAAAAAAAAAAAAAAAAAAAAAAAAAAAAAAAAAAAAAAAAAAAAAAAAAAAAA1111II
AAAAAAAAAAAAAAAAAAAAAAAAAAAAAAAAAAAAAAAAAAAAAAAAAAAAAAAAAAA1111I
AAAAAAAAAAAAAAAAAAAAAAAAAAAAAAAAAAAAAAAAAAAAAAAAAAAAAAAAAAAA1111
AAAAAAAAAAAAAAAAAAAAAAAAAAAAAAAAAAAAAAAAAAAAAAAAAAAAAAAAAAAAA111
AAAAAAAAAAAAAAAAAAAAAAAAAAAAAAAAAAAAAAAAAAAAAAAAAAAAAAAAAAAAAA11
AAAAAAAAAAAAAAAAAAAAAAAAAAAAAAAAAAAAAAAAAAAAAAAAAAAAAAAAAAAAAAA1
AAAAAAAAAAAAAAAAAAAAAAAAAAAAAAAAAAAAAAAAAAAAAAAAAAAAAAAAAAAAAAAA
[MLOP] Prefetch Degree Mean: 3.70566
[MLOP] Prefetch Degree SD: 1.34921
[MLOP] Max Score Left Mean (%): 90.2232
[MLOP] Max Score Left SD (%): 17.8409
[MLOP] Max Score Right Mean (%): 94.8015
[MLOP] Max Score Right SD (%): 15.7594

DRAM Statistics
 CHANNEL 0
 RQ ROW_BUFFER_HIT:    1107989  ROW_BUFFER_MISS:    1024347
 DBUS_CONGESTED:       1793
 WQ ROW_BUFFER_HIT:     112038  ROW_BUFFER_MISS:     355496  FULL:          0

 AVG_CONGESTED_CYCLE: 5
 All warmup complete: 5
Channel 0 Bank busy for read cycles: 0
Channel 0 Bank busy for write cycles: 0
Channel 0
Rank 0
0banks busy for read cycles: 33005970
0banks busy for write cycles: 76090
1banks busy for read cycles: 43374531
1banks busy for write cycles: 9639813
2banks busy for read cycles: 23140054
2banks busy for write cycles: 5197768
3banks busy for read cycles: 14576649
3banks busy for write cycles: 3449988
4banks busy for read cycles: 8256992
4banks busy for write cycles: 2518193
5banks busy for read cycles: 4275136
5banks busy for write cycles: 1985928
6banks busy for read cycles: 2031690
6banks busy for write cycles: 1562054
7banks busy for read cycles: 895174
7banks busy for write cycles: 1311190
8banks busy for read cycles: 407830
8banks busy for write cycles: 957819

CPU 0 Branch Prediction Accuracy: 99.9869% MPKI: 0.00116302 Average ROB Occupancy at Mispredict: 44.6438
Branch types
NOT_BRANCH: 198558450 99.113%
BRANCH_DIRECT_JUMP: 217468 0.108552%
BRANCH_INDIRECT: 36219 0.0180792%
BRANCH_CONDITIONAL: 1088549 0.543363%
BRANCH_DIRECT_CALL: 217347 0.108492%
BRANCH_INDIRECT_CALL: 0 0%
BRANCH_RETURN: 217347 0.108492%
BRANCH_OTHER: 0 0%


CPU 1 Branch Prediction Accuracy: 99.9869% MPKI: 0.0011645 Average ROB Occupancy at Mispredict: 44.6652
Branch types
NOT_BRANCH: 198309546 99.1129%
BRANCH_DIRECT_JUMP: 217197 0.108553%
BRANCH_INDIRECT: 36174 0.0180794%
BRANCH_CONDITIONAL: 1087199 0.54337%
BRANCH_DIRECT_CALL: 217077 0.108493%
BRANCH_INDIRECT_CALL: 0 0%
BRANCH_RETURN: 217077 0.108493%
BRANCH_OTHER: 0 0%


CPU 2 Branch Prediction Accuracy: 99.9869% MPKI: 0.00116499 Average ROB Occupancy at Mispredict: 44.8412
Branch types
NOT_BRANCH: 198225687 99.1128%
BRANCH_DIRECT_JUMP: 217107 0.108553%
BRANCH_INDIRECT: 36158 0.018079%
BRANCH_CONDITIONAL: 1086746 0.543373%
BRANCH_DIRECT_CALL: 216987 0.108493%
BRANCH_INDIRECT_CALL: 0 0%
BRANCH_RETURN: 216987 0.108493%
BRANCH_OTHER: 0 0%


CPU 3 Branch Prediction Accuracy: 99.9869% MPKI: 0.00116398 Average ROB Occupancy at Mispredict: 44.8026
Branch types
NOT_BRANCH: 198399882 99.113%
BRANCH_DIRECT_JUMP: 217294 0.108552%
BRANCH_INDIRECT: 36190 0.0180791%
BRANCH_CONDITIONAL: 1087679 0.543363%
BRANCH_DIRECT_CALL: 217173 0.108491%
BRANCH_INDIRECT_CALL: 0 0%
BRANCH_RETURN: 217173 0.108491%
BRANCH_OTHER: 0 0%

DRAM PAGES: 1048576
Allocated PAGES: 33852
