
*** ChampSim Multicore Out-of-Order Simulator ***

Warmup Instructions: 50000000
Simulation Instructions: 200000000
Number of CPUs: 4
LLC sets: 8192
LLC ways: 16
Off-chip DRAM Size: 4096 MB Channels: 1 Width: 64-bit Data Rate: 6400 MT/s
CPU 0 runs ./traces/spec/649.fotonik3d_s-1176B.champsimtrace.xz
.xz
CPU 1 runs ./traces/spec/649.fotonik3d_s-1176B.champsimtrace.xz
.xz
CPU 2 runs ./traces/spec/649.fotonik3d_s-1176B.champsimtrace.xz
.xz
CPU 3 runs ./traces/spec/649.fotonik3d_s-1176B.champsimtrace.xz
.xz
BTB has LRU replacement policy
ITLB has LRU replacement policy
DTLB has LRU replacement policy
STLB has LRU replacement policy
L1I has LRU replacement policy
L1D has LRU replacement policy
Initialize SRRIP state for L2C
Initialize DRRIP state for LLC
BTB has LRU replacement policy
ITLB has LRU replacement policy
DTLB has LRU replacement policy
STLB has LRU replacement policy
L1I has LRU replacement policy
L1D has LRU replacement policy
Initialize SRRIP state for L2C
Initialize DRRIP state for LLC
BTB has LRU replacement policy
ITLB has LRU replacement policy
DTLB has LRU replacement policy
STLB has LRU replacement policy
L1I has LRU replacement policy
L1D has LRU replacement policy
Initialize SRRIP state for L2C
Initialize DRRIP state for LLC
BTB has LRU replacement policy
ITLB has LRU replacement policy
DTLB has LRU replacement policy
STLB has LRU replacement policy
L1I has LRU replacement policy
L1D has LRU replacement policy
Initialize SRRIP state for L2C
Initialize DRRIP state for LLC
Heartbeat CPU 0 instructions: 10000000 cycles: 2905539 heartbeat IPC: 3.4417 cumulative IPC: 3.4417 (Simulation time: 0 hr 2 min 19 sec) 
Heartbeat CPU 1 instructions: 10000000 cycles: 2905708 heartbeat IPC: 3.4415 cumulative IPC: 3.4415 (Simulation time: 0 hr 2 min 19 sec) 
Heartbeat CPU 2 instructions: 10000000 cycles: 2905745 heartbeat IPC: 3.44146 cumulative IPC: 3.44146 (Simulation time: 0 hr 2 min 19 sec) 
Heartbeat CPU 3 instructions: 10000000 cycles: 2905757 heartbeat IPC: 3.44144 cumulative IPC: 3.44144 (Simulation time: 0 hr 2 min 19 sec) 
Heartbeat CPU 3 instructions: 20000002 cycles: 5810872 heartbeat IPC: 3.44221 cumulative IPC: 3.44182 (Simulation time: 0 hr 4 min 36 sec) 
Heartbeat CPU 0 instructions: 20000002 cycles: 5810877 heartbeat IPC: 3.44194 cumulative IPC: 3.44182 (Simulation time: 0 hr 4 min 36 sec) 
Heartbeat CPU 1 instructions: 20000002 cycles: 5811040 heartbeat IPC: 3.44195 cumulative IPC: 3.44173 (Simulation time: 0 hr 4 min 36 sec) 
Heartbeat CPU 2 instructions: 20000002 cycles: 5811269 heartbeat IPC: 3.44172 cumulative IPC: 3.44159 (Simulation time: 0 hr 4 min 36 sec) 
Heartbeat CPU 3 instructions: 30000001 cycles: 8716087 heartbeat IPC: 3.44209 cumulative IPC: 3.44191 (Simulation time: 0 hr 7 min 12 sec) 
Heartbeat CPU 0 instructions: 30000001 cycles: 8716270 heartbeat IPC: 3.44187 cumulative IPC: 3.44184 (Simulation time: 0 hr 7 min 12 sec) 
Heartbeat CPU 1 instructions: 30000001 cycles: 8716478 heartbeat IPC: 3.44182 cumulative IPC: 3.44176 (Simulation time: 0 hr 7 min 12 sec) 
Heartbeat CPU 2 instructions: 30000001 cycles: 8716669 heartbeat IPC: 3.44187 cumulative IPC: 3.44168 (Simulation time: 0 hr 7 min 12 sec) 
Heartbeat CPU 3 instructions: 40000003 cycles: 11621696 heartbeat IPC: 3.44162 cumulative IPC: 3.44184 (Simulation time: 0 hr 9 min 35 sec) 
Heartbeat CPU 0 instructions: 40000003 cycles: 11621806 heartbeat IPC: 3.44171 cumulative IPC: 3.44181 (Simulation time: 0 hr 9 min 35 sec) 
Heartbeat CPU 1 instructions: 40000003 cycles: 11622028 heartbeat IPC: 3.44169 cumulative IPC: 3.44174 (Simulation time: 0 hr 9 min 35 sec) 
Heartbeat CPU 2 instructions: 40000003 cycles: 11622222 heartbeat IPC: 3.44169 cumulative IPC: 3.44168 (Simulation time: 0 hr 9 min 35 sec) 
Heartbeat CPU 3 instructions: 50000001 cycles: 14527043 heartbeat IPC: 3.44193 cumulative IPC: 3.44186 (Simulation time: 0 hr 12 min 9 sec) 
Heartbeat CPU 0 instructions: 50000001 cycles: 14527134 heartbeat IPC: 3.44195 cumulative IPC: 3.44184 (Simulation time: 0 hr 12 min 9 sec) 
Heartbeat CPU 1 instructions: 50000001 cycles: 14527287 heartbeat IPC: 3.44203 cumulative IPC: 3.4418 (Simulation time: 0 hr 12 min 9 sec) 
Heartbeat CPU 2 instructions: 50000001 cycles: 14527565 heartbeat IPC: 3.44193 cumulative IPC: 3.44173 (Simulation time: 0 hr 12 min 9 sec) 

Warmup complete CPU 0 instructions: 50001498 cycles: 14527565 (Simulation time: 0 hr 12 min 9 sec) 
Warmup complete CPU 1 instructions: 50000934 cycles: 14527565 (Simulation time: 0 hr 12 min 9 sec) 
Warmup complete CPU 2 instructions: 50000001 cycles: 14527565 (Simulation time: 0 hr 12 min 9 sec) 
Warmup complete CPU 3 instructions: 50001804 cycles: 14527564 (Simulation time: 0 hr 12 min 9 sec) 

Heartbeat CPU 2 instructions: 60000002 cycles: 26758954 heartbeat IPC: 0.817569 cumulative IPC: 0.817569 (Simulation time: 0 hr 15 min 46 sec) 
Heartbeat CPU 1 instructions: 60000002 cycles: 26760923 heartbeat IPC: 0.817419 cumulative IPC: 0.817361 (Simulation time: 0 hr 15 min 46 sec) 
Heartbeat CPU 0 instructions: 60000000 cycles: 26880436 heartbeat IPC: 0.8095 cumulative IPC: 0.809407 (Simulation time: 0 hr 15 min 48 sec) 
Heartbeat CPU 3 instructions: 60000003 cycles: 26932739 heartbeat IPC: 0.806081 cumulative IPC: 0.80597 (Simulation time: 0 hr 15 min 49 sec) 
Heartbeat CPU 2 instructions: 70000001 cycles: 39024736 heartbeat IPC: 0.815276 cumulative IPC: 0.816421 (Simulation time: 0 hr 19 min 30 sec) 
Heartbeat CPU 1 instructions: 70000001 cycles: 39084596 heartbeat IPC: 0.811446 cumulative IPC: 0.814393 (Simulation time: 0 hr 19 min 31 sec) 
Heartbeat CPU 0 instructions: 70000001 cycles: 39141693 heartbeat IPC: 0.815577 cumulative IPC: 0.812481 (Simulation time: 0 hr 19 min 31 sec) 
Heartbeat CPU 3 instructions: 70000001 cycles: 39194210 heartbeat IPC: 0.815563 cumulative IPC: 0.810738 (Simulation time: 0 hr 19 min 32 sec) 
Heartbeat CPU 2 instructions: 80000001 cycles: 51175825 heartbeat IPC: 0.822972 cumulative IPC: 0.818593 (Simulation time: 0 hr 23 min 3 sec) 
Heartbeat CPU 0 instructions: 80000000 cycles: 51395331 heartbeat IPC: 0.816084 cumulative IPC: 0.813678 (Simulation time: 0 hr 23 min 7 sec) 
Heartbeat CPU 1 instructions: 80000000 cycles: 51401909 heartbeat IPC: 0.811865 cumulative IPC: 0.813548 (Simulation time: 0 hr 23 min 7 sec) 
Heartbeat CPU 3 instructions: 80000000 cycles: 51495566 heartbeat IPC: 0.812918 cumulative IPC: 0.811464 (Simulation time: 0 hr 23 min 9 sec) 
Heartbeat CPU 2 instructions: 90000000 cycles: 63490455 heartbeat IPC: 0.812042 cumulative IPC: 0.816945 (Simulation time: 0 hr 26 min 44 sec) 
Heartbeat CPU 1 instructions: 90000000 cycles: 63693301 heartbeat IPC: 0.813577 cumulative IPC: 0.813556 (Simulation time: 0 hr 26 min 46 sec) 
Heartbeat CPU 0 instructions: 90000001 cycles: 63723306 heartbeat IPC: 0.811163 cumulative IPC: 0.813048 (Simulation time: 0 hr 26 min 47 sec) 
Heartbeat CPU 3 instructions: 90000000 cycles: 63871346 heartbeat IPC: 0.80803 cumulative IPC: 0.810603 (Simulation time: 0 hr 26 min 49 sec) 
Heartbeat CPU 2 instructions: 100000000 cycles: 75775928 heartbeat IPC: 0.813969 cumulative IPC: 0.816348 (Simulation time: 0 hr 30 min 20 sec) 
Heartbeat CPU 0 instructions: 100000000 cycles: 76002000 heartbeat IPC: 0.814419 cumulative IPC: 0.813322 (Simulation time: 0 hr 30 min 24 sec) 
Heartbeat CPU 1 instructions: 100000000 cycles: 76049450 heartbeat IPC: 0.809314 cumulative IPC: 0.812704 (Simulation time: 0 hr 30 min 25 sec) 
Heartbeat CPU 3 instructions: 100000000 cycles: 76159476 heartbeat IPC: 0.813793 cumulative IPC: 0.811239 (Simulation time: 0 hr 30 min 27 sec) 
Heartbeat CPU 2 instructions: 110000000 cycles: 88039209 heartbeat IPC: 0.815442 cumulative IPC: 0.816197 (Simulation time: 0 hr 33 min 59 sec) 
Heartbeat CPU 1 instructions: 110000000 cycles: 88254751 heartbeat IPC: 0.819316 cumulative IPC: 0.813798 (Simulation time: 0 hr 34 min 3 sec) 
Heartbeat CPU 0 instructions: 110000000 cycles: 88344060 heartbeat IPC: 0.810238 cumulative IPC: 0.812806 (Simulation time: 0 hr 34 min 5 sec) 
Heartbeat CPU 3 instructions: 110000000 cycles: 88401380 heartbeat IPC: 0.816866 cumulative IPC: 0.812171 (Simulation time: 0 hr 34 min 6 sec) 
Heartbeat CPU 2 instructions: 120000001 cycles: 100423488 heartbeat IPC: 0.807475 cumulative IPC: 0.81494 (Simulation time: 0 hr 37 min 40 sec) 
Heartbeat CPU 1 instructions: 120000001 cycles: 100504960 heartbeat IPC: 0.816313 cumulative IPC: 0.814157 (Simulation time: 0 hr 37 min 41 sec) 
Heartbeat CPU 0 instructions: 120000001 cycles: 100612732 heartbeat IPC: 0.815084 cumulative IPC: 0.813131 (Simulation time: 0 hr 37 min 43 sec) 
Heartbeat CPU 3 instructions: 120000001 cycles: 100670918 heartbeat IPC: 0.815027 cumulative IPC: 0.812578 (Simulation time: 0 hr 37 min 44 sec) 
Heartbeat CPU 2 instructions: 130000002 cycles: 112656706 heartbeat IPC: 0.817446 cumulative IPC: 0.815252 (Simulation time: 0 hr 40 min 51 sec) 
Heartbeat CPU 1 instructions: 130000002 cycles: 112753861 heartbeat IPC: 0.8164 cumulative IPC: 0.814436 (Simulation time: 0 hr 40 min 53 sec) 
Heartbeat CPU 0 instructions: 130000002 cycles: 112922564 heartbeat IPC: 0.812359 cumulative IPC: 0.813034 (Simulation time: 0 hr 40 min 55 sec) 
Heartbeat CPU 3 instructions: 130000002 cycles: 112973817 heartbeat IPC: 0.812817 cumulative IPC: 0.812608 (Simulation time: 0 hr 40 min 56 sec) 
Heartbeat CPU 2 instructions: 140000003 cycles: 124893010 heartbeat IPC: 0.81724 cumulative IPC: 0.815473 (Simulation time: 0 hr 44 min 17 sec) 
Heartbeat CPU 1 instructions: 140000003 cycles: 125019716 heartbeat IPC: 0.815271 cumulative IPC: 0.814529 (Simulation time: 0 hr 44 min 20 sec) 
Heartbeat CPU 0 instructions: 140000003 cycles: 125228040 heartbeat IPC: 0.812646 cumulative IPC: 0.812991 (Simulation time: 0 hr 44 min 23 sec) 
Heartbeat CPU 3 instructions: 140000003 cycles: 125347734 heartbeat IPC: 0.808152 cumulative IPC: 0.81211 (Simulation time: 0 hr 44 min 25 sec) 
Heartbeat CPU 2 instructions: 150000003 cycles: 137231518 heartbeat IPC: 0.810471 cumulative IPC: 0.81497 (Simulation time: 0 hr 47 min 29 sec) 
Heartbeat CPU 1 instructions: 150000001 cycles: 137252188 heartbeat IPC: 0.817496 cumulative IPC: 0.814825 (Simulation time: 0 hr 47 min 30 sec) 
Heartbeat CPU 0 instructions: 150000001 cycles: 137452443 heartbeat IPC: 0.818036 cumulative IPC: 0.813493 (Simulation time: 0 hr 47 min 33 sec) 
Heartbeat CPU 3 instructions: 150000003 cycles: 137681140 heartbeat IPC: 0.810806 cumulative IPC: 0.81198 (Simulation time: 0 hr 47 min 38 sec) 
Heartbeat CPU 2 instructions: 160000000 cycles: 149404060 heartbeat IPC: 0.821521 cumulative IPC: 0.815561 (Simulation time: 0 hr 51 min 3 sec) 
Heartbeat CPU 1 instructions: 160000000 cycles: 149453320 heartbeat IPC: 0.819596 cumulative IPC: 0.815256 (Simulation time: 0 hr 51 min 4 sec) 
Heartbeat CPU 0 instructions: 160000000 cycles: 149840058 heartbeat IPC: 0.807258 cumulative IPC: 0.812922 (Simulation time: 0 hr 51 min 11 sec) 
Heartbeat CPU 3 instructions: 160000000 cycles: 149971510 heartbeat IPC: 0.813645 cumulative IPC: 0.812131 (Simulation time: 0 hr 51 min 14 sec) 
Heartbeat CPU 2 instructions: 170000002 cycles: 161626387 heartbeat IPC: 0.818175 cumulative IPC: 0.815778 (Simulation time: 0 hr 54 min 18 sec) 
Heartbeat CPU 1 instructions: 170000002 cycles: 161633921 heartbeat IPC: 0.820978 cumulative IPC: 0.81573 (Simulation time: 0 hr 54 min 18 sec) 
Heartbeat CPU 0 instructions: 170000002 cycles: 162164038 heartbeat IPC: 0.811426 cumulative IPC: 0.812797 (Simulation time: 0 hr 54 min 26 sec) 
Heartbeat CPU 3 instructions: 170000002 cycles: 162313263 heartbeat IPC: 0.810258 cumulative IPC: 0.811974 (Simulation time: 0 hr 54 min 29 sec) 
Heartbeat CPU 1 instructions: 180000001 cycles: 173961203 heartbeat IPC: 0.811209 cumulative IPC: 0.81538 (Simulation time: 0 hr 57 min 49 sec) 
Heartbeat CPU 2 instructions: 180000003 cycles: 173997947 heartbeat IPC: 0.808306 cumulative IPC: 0.815198 (Simulation time: 0 hr 57 min 49 sec) 
Heartbeat CPU 0 instructions: 180000002 cycles: 174429401 heartbeat IPC: 0.815304 cumulative IPC: 0.812989 (Simulation time: 0 hr 57 min 56 sec) 
Heartbeat CPU 3 instructions: 180000003 cycles: 174530218 heartbeat IPC: 0.818535 cumulative IPC: 0.812475 (Simulation time: 0 hr 57 min 58 sec) 
Heartbeat CPU 1 instructions: 190000000 cycles: 186247687 heartbeat IPC: 0.813902 cumulative IPC: 0.815275 (Simulation time: 1 hr 0 min 58 sec) 
Heartbeat CPU 2 instructions: 190000002 cycles: 186257285 heartbeat IPC: 0.815705 cumulative IPC: 0.815235 (Simulation time: 1 hr 0 min 58 sec) 
Heartbeat CPU 0 instructions: 190000002 cycles: 186728685 heartbeat IPC: 0.813055 cumulative IPC: 0.812994 (Simulation time: 1 hr 1 min 6 sec) 
Heartbeat CPU 3 instructions: 190000002 cycles: 186849999 heartbeat IPC: 0.811703 cumulative IPC: 0.81242 (Simulation time: 1 hr 1 min 8 sec) 
Heartbeat CPU 1 instructions: 200000001 cycles: 198467854 heartbeat IPC: 0.818319 cumulative IPC: 0.815477 (Simulation time: 1 hr 4 min 13 sec) 
Heartbeat CPU 2 instructions: 200000003 cycles: 198539497 heartbeat IPC: 0.814186 cumulative IPC: 0.815165 (Simulation time: 1 hr 4 min 14 sec) 
Heartbeat CPU 0 instructions: 200000001 cycles: 199057945 heartbeat IPC: 0.811079 cumulative IPC: 0.812866 (Simulation time: 1 hr 4 min 25 sec) 
Heartbeat CPU 3 instructions: 200000001 cycles: 199089957 heartbeat IPC: 0.816996 cumulative IPC: 0.812724 (Simulation time: 1 hr 4 min 25 sec) 
Heartbeat CPU 1 instructions: 210000003 cycles: 210780962 heartbeat IPC: 0.812143 cumulative IPC: 0.815268 (Simulation time: 1 hr 7 min 56 sec) 
Heartbeat CPU 2 instructions: 210000002 cycles: 210811419 heartbeat IPC: 0.814868 cumulative IPC: 0.815146 (Simulation time: 1 hr 7 min 56 sec) 
Heartbeat CPU 3 instructions: 210000003 cycles: 211245593 heartbeat IPC: 0.822664 cumulative IPC: 0.813338 (Simulation time: 1 hr 8 min 5 sec) 
Heartbeat CPU 0 instructions: 210000002 cycles: 211378324 heartbeat IPC: 0.811663 cumulative IPC: 0.812791 (Simulation time: 1 hr 8 min 7 sec) 
Heartbeat CPU 1 instructions: 220000000 cycles: 223075404 heartbeat IPC: 0.813375 cumulative IPC: 0.815156 (Simulation time: 1 hr 11 min 33 sec) 
Heartbeat CPU 2 instructions: 220000000 cycles: 223189953 heartbeat IPC: 0.80785 cumulative IPC: 0.814713 (Simulation time: 1 hr 11 min 35 sec) 
Heartbeat CPU 3 instructions: 220000000 cycles: 223459952 heartbeat IPC: 0.818708 cumulative IPC: 0.813652 (Simulation time: 1 hr 11 min 40 sec) 
Heartbeat CPU 0 instructions: 220000000 cycles: 223704345 heartbeat IPC: 0.811292 cumulative IPC: 0.812703 (Simulation time: 1 hr 11 min 44 sec) 
Heartbeat CPU 1 instructions: 230000002 cycles: 235368099 heartbeat IPC: 0.813491 cumulative IPC: 0.815064 (Simulation time: 1 hr 15 min 17 sec) 
Heartbeat CPU 2 instructions: 230000002 cycles: 235488123 heartbeat IPC: 0.813129 cumulative IPC: 0.814625 (Simulation time: 1 hr 15 min 18 sec) 
Heartbeat CPU 3 instructions: 230000002 cycles: 235803611 heartbeat IPC: 0.810133 cumulative IPC: 0.813455 (Simulation time: 1 hr 15 min 23 sec) 
Heartbeat CPU 0 instructions: 230000002 cycles: 236027735 heartbeat IPC: 0.811465 cumulative IPC: 0.812634 (Simulation time: 1 hr 15 min 28 sec) 
Heartbeat CPU 1 instructions: 240000003 cycles: 247636531 heartbeat IPC: 0.8151 cumulative IPC: 0.815065 (Simulation time: 1 hr 18 min 59 sec) 
Heartbeat CPU 2 instructions: 240000003 cycles: 247720261 heartbeat IPC: 0.817519 cumulative IPC: 0.814777 (Simulation time: 1 hr 19 min 0 sec) 
Heartbeat CPU 3 instructions: 240000003 cycles: 248158638 heartbeat IPC: 0.809387 cumulative IPC: 0.81324 (Simulation time: 1 hr 19 min 8 sec) 
Heartbeat CPU 0 instructions: 240000003 cycles: 248264610 heartbeat IPC: 0.817202 cumulative IPC: 0.812873 (Simulation time: 1 hr 19 min 9 sec) 
Heartbeat CPU 1 instructions: 250000003 cycles: 259966235 heartbeat IPC: 0.811049 cumulative IPC: 0.814864 (Simulation time: 1 hr 22 min 37 sec) 
Finished CPU 1 instructions: 200000002 cycles: 245439483 cumulative IPC: 0.814865 (Simulation time: 1 hr 22 min 37 sec) 
Heartbeat CPU 2 instructions: 250000003 cycles: 260017883 heartbeat IPC: 0.813165 cumulative IPC: 0.814696 (Simulation time: 1 hr 22 min 38 sec) 
Finished CPU 2 instructions: 200000002 cycles: 245490318 cumulative IPC: 0.814696 (Simulation time: 1 hr 22 min 38 sec) 
Heartbeat CPU 3 instructions: 250000003 cycles: 260402865 heartbeat IPC: 0.816711 cumulative IPC: 0.813413 (Simulation time: 1 hr 22 min 46 sec) 
Finished CPU 3 instructions: 200000001 cycles: 245877899 cumulative IPC: 0.813412 (Simulation time: 1 hr 22 min 46 sec) 
Heartbeat CPU 0 instructions: 250000003 cycles: 260566568 heartbeat IPC: 0.812879 cumulative IPC: 0.812873 (Simulation time: 1 hr 22 min 49 sec) 
Finished CPU 0 instructions: 200000001 cycles: 246040559 cumulative IPC: 0.812874 (Simulation time: 1 hr 22 min 49 sec) 

ChampSim completed all CPUs

Total Simulation Statistics (not including warmup)

CPU 0 cumulative IPC: 0.812874 instructions: 200000001 cycles: 246040559
ITLB TOTAL     ACCESS:   29371017  HIT:   29371017  MISS:          0  HIT %:        100  MISS %:          0   MPKI: 0
ITLB LOAD      ACCESS:          0  HIT:          0  MISS:          0  HIT %:       -nan  MISS %:       -nan   MPKI: 0
ITLB RFO       ACCESS:          0  HIT:          0  MISS:          0  HIT %:       -nan  MISS %:       -nan   MPKI: 0
ITLB PREFETCH  ACCESS:          0  HIT:          0  MISS:          0  HIT %:       -nan  MISS %:       -nan   MPKI: 0
ITLB WRITEBACK ACCESS:          0  HIT:          0  MISS:          0  HIT %:       -nan  MISS %:       -nan   MPKI: 0
DTLB TOTAL     ACCESS:   25387609  HIT:   25340631  MISS:      46978  HIT %:     99.815  MISS %:   0.185043   MPKI: 0.23489
DTLB LOAD      ACCESS:          0  HIT:          0  MISS:          0  HIT %:       -nan  MISS %:       -nan   MPKI: 0
DTLB RFO       ACCESS:          0  HIT:          0  MISS:          0  HIT %:       -nan  MISS %:       -nan   MPKI: 0
DTLB PREFETCH  ACCESS:          0  HIT:          0  MISS:          0  HIT %:       -nan  MISS %:       -nan   MPKI: 0
DTLB WRITEBACK ACCESS:          0  HIT:          0  MISS:          0  HIT %:       -nan  MISS %:       -nan   MPKI: 0
STLB TOTAL     ACCESS:    1554527  HIT:    1527080  MISS:      27447  HIT %:    98.2344  MISS %:    1.76562   MPKI: 0.137235
STLB LOAD      ACCESS:          0  HIT:          0  MISS:          0  HIT %:       -nan  MISS %:       -nan   MPKI: 0
STLB RFO       ACCESS:          0  HIT:          0  MISS:          0  HIT %:       -nan  MISS %:       -nan   MPKI: 0
STLB PREFETCH  ACCESS:          0  HIT:          0  MISS:          0  HIT %:       -nan  MISS %:       -nan   MPKI: 0
STLB WRITEBACK ACCESS:          0  HIT:          0  MISS:          0  HIT %:       -nan  MISS %:       -nan   MPKI: 0
L1D TOTAL     ACCESS:   40732832  HIT:   38078535  MISS:    2654297  HIT %:    93.4836  MISS %:    6.51636   MPKI: 13.2715
L1D LOAD      ACCESS:   25335525  HIT:   24046186  MISS:    1289339  HIT %:    94.9109  MISS %:    5.08906   MPKI: 6.44669
L1D RFO       ACCESS:   14035410  HIT:   14032344  MISS:       3066  HIT %:    99.9782  MISS %:  0.0218447   MPKI: 0.01533
L1D PREFETCH  ACCESS:    1361897  HIT:          5  MISS:    1361892  HIT %: 0.000367135  MISS %:    99.9996   MPKI: 6.80946
L1D WRITEBACK ACCESS:          0  HIT:          0  MISS:          0  HIT %:       -nan  MISS %:       -nan   MPKI: 0
L1I TOTAL     ACCESS:   36364595  HIT:   36364595  MISS:          0  HIT %:        100  MISS %:          0   MPKI: 0
L1I LOAD      ACCESS:   36364595  HIT:   36364595  MISS:          0  HIT %:        100  MISS %:          0   MPKI: 0
L1I RFO       ACCESS:          0  HIT:          0  MISS:          0  HIT %:       -nan  MISS %:       -nan   MPKI: 0
L1I PREFETCH  ACCESS:          0  HIT:          0  MISS:          0  HIT %:       -nan  MISS %:       -nan   MPKI: 0
L1I WRITEBACK ACCESS:          0  HIT:          0  MISS:          0  HIT %:       -nan  MISS %:       -nan   MPKI: 0
L2C TOTAL     ACCESS:    4438732  HIT:    1992096  MISS:    2446636  HIT %:    44.8798  MISS %:    55.1202   MPKI: 12.2332
L2C LOAD      ACCESS:     928694  HIT:     403628  MISS:     525066  HIT %:    43.4619  MISS %:    56.5381   MPKI: 2.62533
L2C RFO       ACCESS:       3066  HIT:       1846  MISS:       1220  HIT %:    60.2087  MISS %:    39.7913   MPKI: 0.0061
L2C PREFETCH  ACCESS:    1722537  HIT:          0  MISS:    1722537  HIT %:          0  MISS %:        100   MPKI: 8.61268
L2C WRITEBACK ACCESS:    1756979  HIT:    1562890  MISS:     194089  HIT %:    88.9533  MISS %:    11.0467   MPKI: 0.970445
PSCL5 TOTAL     ACCESS:      27447  HIT:      27447  MISS:          0  HIT %:        100  MISS %:          0   MPKI: 0
PSCL5 LOAD      ACCESS:          0  HIT:          0  MISS:          0  HIT %:       -nan  MISS %:       -nan   MPKI: 0
PSCL5 RFO       ACCESS:          0  HIT:          0  MISS:          0  HIT %:       -nan  MISS %:       -nan   MPKI: 0
PSCL5 PREFETCH  ACCESS:          0  HIT:          0  MISS:          0  HIT %:       -nan  MISS %:       -nan   MPKI: 0
PSCL5 WRITEBACK ACCESS:          0  HIT:          0  MISS:          0  HIT %:       -nan  MISS %:       -nan   MPKI: 0
PSCL4 TOTAL     ACCESS:      27447  HIT:      27447  MISS:          0  HIT %:        100  MISS %:          0   MPKI: 0
PSCL4 LOAD      ACCESS:          0  HIT:          0  MISS:          0  HIT %:       -nan  MISS %:       -nan   MPKI: 0
PSCL4 RFO       ACCESS:          0  HIT:          0  MISS:          0  HIT %:       -nan  MISS %:       -nan   MPKI: 0
PSCL4 PREFETCH  ACCESS:          0  HIT:          0  MISS:          0  HIT %:       -nan  MISS %:       -nan   MPKI: 0
PSCL4 WRITEBACK ACCESS:          0  HIT:          0  MISS:          0  HIT %:       -nan  MISS %:       -nan   MPKI: 0
PSCL3 TOTAL     ACCESS:      27384  HIT:      27379  MISS:          5  HIT %:    99.9817  MISS %:  0.0182588   MPKI: 2.5e-05
PSCL3 LOAD      ACCESS:          0  HIT:          0  MISS:          0  HIT %:       -nan  MISS %:       -nan   MPKI: 0
PSCL3 RFO       ACCESS:          0  HIT:          0  MISS:          0  HIT %:       -nan  MISS %:       -nan   MPKI: 0
PSCL3 PREFETCH  ACCESS:          0  HIT:          0  MISS:          0  HIT %:       -nan  MISS %:       -nan   MPKI: 0
PSCL3 WRITEBACK ACCESS:          0  HIT:          0  MISS:          0  HIT %:       -nan  MISS %:       -nan   MPKI: 0
PSCL2 TOTAL     ACCESS:      27447  HIT:      27353  MISS:         94  HIT %:    99.6575  MISS %:   0.342478   MPKI: 0.00047
PSCL2 LOAD      ACCESS:          0  HIT:          0  MISS:          0  HIT %:       -nan  MISS %:       -nan   MPKI: 0
PSCL2 RFO       ACCESS:          0  HIT:          0  MISS:          0  HIT %:       -nan  MISS %:       -nan   MPKI: 0
PSCL2 PREFETCH  ACCESS:          0  HIT:          0  MISS:          0  HIT %:       -nan  MISS %:       -nan   MPKI: 0
PSCL2 WRITEBACK ACCESS:          0  HIT:          0  MISS:          0  HIT %:       -nan  MISS %:       -nan   MPKI: 0
=== CPU 0 L1D Prefetcher Statistics ===
[MLOP] History of tracked zone:
IIIIIIIIIIIIIIIIIIIIIIIIIIIIIIIIIIIIIIIIIIIIIIIIIIIIIIIIIIIIIIII
A11111IIIIIIIIIIIIIIIIIIIIIIIIIIIIIIIIIIIIIIIIIIIIIIIIIIIIIIIIII
AA11111IIIIIIIIIIIIIIIIIIIIIIIIIIIIIIIIIIIIIIIIIIIIIIIIIIIIIIIII
AAA11111IIIIIIIIIIIIIIIIIIIIIIIIIIIIIIIIIIIIIIIIIIIIIIIIIIIIIIII
AAAA11111IIIIIIIIIIIIIIIIIIIIIIIIIIIIIIIIIIIIIIIIIIIIIIIIIIIIIII
AAAAA11111IIIIIIIIIIIIIIIIIIIIIIIIIIIIIIIIIIIIIIIIIIIIIIIIIIIIII
AAAAAA11111IIIIIIIIIIIIIIIIIIIIIIIIIIIIIIIIIIIIIIIIIIIIIIIIIIIII
AAAAAAA11111IIIIIIIIIIIIIIIIIIIIIIIIIIIIIIIIIIIIIIIIIIIIIIIIIIII
AAAAAAAA11111IIIIIIIIIIIIIIIIIIIIIIIIIIIIIIIIIIIIIIIIIIIIIIIIIII
AAAAAAAAA11111IIIIIIIIIIIIIIIIIIIIIIIIIIIIIIIIIIIIIIIIIIIIIIIIII
AAAAAAAAAA11111IIIIIIIIIIIIIIIIIIIIIIIIIIIIIIIIIIIIIIIIIIIIIIIII
AAAAAAAAAAA11111IIIIIIIIIIIIIIIIIIIIIIIIIIIIIIIIIIIIIIIIIIIIIIII
AAAAAAAAAAAA11111IIIIIIIIIIIIIIIIIIIIIIIIIIIIIIIIIIIIIIIIIIIIIII
AAAAAAAAAAAAA11111IIIIIIIIIIIIIIIIIIIIIIIIIIIIIIIIIIIIIIIIIIIIII
AAAAAAAAAAAAAA11111IIIIIIIIIIIIIIIIIIIIIIIIIIIIIIIIIIIIIIIIIIIII
AAAAAAAAAAAAAAA11111IIIIIIIIIIIIIIIIIIIIIIIIIIIIIIIIIIIIIIIIIIII
AAAAAAAAAAAAAAAA11111IIIIIIIIIIIIIIIIIIIIIIIIIIIIIIIIIIIIIIIIIII
AAAAAAAAAAAAAAAAA11111IIIIIIIIIIIIIIIIIIIIIIIIIIIIIIIIIIIIIIIIII
AAAAAAAAAAAAAAAAAA11111IIIIIIIIIIIIIIIIIIIIIIIIIIIIIIIIIIIIIIIII
AAAAAAAAAAAAAAAAAAA11111IIIIIIIIIIIIIIIIIIIIIIIIIIIIIIIIIIIIIIII
AAAAAAAAAAAAAAAAAAAA11111IIIIIIIIIIIIIIIIIIIIIIIIIIIIIIIIIIIIIII
AAAAAAAAAAAAAAAAAAAAA11111IIIIIIIIIIIIIIIIIIIIIIIIIIIIIIIIIIIIII
AAAAAAAAAAAAAAAAAAAAAA11111IIIIIIIIIIIIIIIIIIIIIIIIIIIIIIIIIIIII
AAAAAAAAAAAAAAAAAAAAAAA11111IIIIIIIIIIIIIIIIIIIIIIIIIIIIIIIIIIII
AAAAAAAAAAAAAAAAAAAAAAAA11111IIIIIIIIIIIIIIIIIIIIIIIIIIIIIIIIIII
AAAAAAAAAAAAAAAAAAAAAAAAA11111IIIIIIIIIIIIIIIIIIIIIIIIIIIIIIIIII
AAAAAAAAAAAAAAAAAAAAAAAAAA11111IIIIIIIIIIIIIIIIIIIIIIIIIIIIIIIII
AAAAAAAAAAAAAAAAAAAAAAAAAAA11111IIIIIIIIIIIIIIIIIIIIIIIIIIIIIIII
AAAAAAAAAAAAAAAAAAAAAAAAAAAA11111IIIIIIIIIIIIIIIIIIIIIIIIIIIIIII
AAAAAAAAAAAAAAAAAAAAAAAAAAAAA11111IIIIIIIIIIIIIIIIIIIIIIIIIIIIII
AAAAAAAAAAAAAAAAAAAAAAAAAAAAAA11111IIIIIIIIIIIIIIIIIIIIIIIIIIIII
AAAAAAAAAAAAAAAAAAAAAAAAAAAAAAA11111IIIIIIIIIIIIIIIIIIIIIIIIIIII
AAAAAAAAAAAAAAAAAAAAAAAAAAAAAAAA11111IIIIIIIIIIIIIIIIIIIIIIIIIII
AAAAAAAAAAAAAAAAAAAAAAAAAAAAAAAAA11111IIIIIIIIIIIIIIIIIIIIIIIIII
AAAAAAAAAAAAAAAAAAAAAAAAAAAAAAAAAA11111IIIIIIIIIIIIIIIIIIIIIIIII
AAAAAAAAAAAAAAAAAAAAAAAAAAAAAAAAAAA11111IIIIIIIIIIIIIIIIIIIIIIII
AAAAAAAAAAAAAAAAAAAAAAAAAAAAAAAAAAAA11111IIIIIIIIIIIIIIIIIIIIIII
AAAAAAAAAAAAAAAAAAAAAAAAAAAAAAAAAAAAA11111IIIIIIIIIIIIIIIIIIIIII
AAAAAAAAAAAAAAAAAAAAAAAAAAAAAAAAAAAAAA11111IIIIIIIIIIIIIIIIIIIII
AAAAAAAAAAAAAAAAAAAAAAAAAAAAAAAAAAAAAAA11111IIIIIIIIIIIIIIIIIIII
AAAAAAAAAAAAAAAAAAAAAAAAAAAAAAAAAAAAAAAA11111IIIIIIIIIIIIIIIIIII
AAAAAAAAAAAAAAAAAAAAAAAAAAAAAAAAAAAAAAAAA11111IIIIIIIIIIIIIIIIII
AAAAAAAAAAAAAAAAAAAAAAAAAAAAAAAAAAAAAAAAAA11111IIIIIIIIIIIIIIIII
AAAAAAAAAAAAAAAAAAAAAAAAAAAAAAAAAAAAAAAAAAA11111IIIIIIIIIIIIIIII
AAAAAAAAAAAAAAAAAAAAAAAAAAAAAAAAAAAAAAAAAAAA11111IIIIIIIIIIIIIII
AAAAAAAAAAAAAAAAAAAAAAAAAAAAAAAAAAAAAAAAAAAAA11111IIIIIIIIIIIIII
AAAAAAAAAAAAAAAAAAAAAAAAAAAAAAAAAAAAAAAAAAAAAA11111IIIIIIIIIIIII
AAAAAAAAAAAAAAAAAAAAAAAAAAAAAAAAAAAAAAAAAAAAAAA11111IIIIIIIIIIII
AAAAAAAAAAAAAAAAAAAAAAAAAAAAAAAAAAAAAAAAAAAAAAAA11111IIIIIIIIIII
AAAAAAAAAAAAAAAAAAAAAAAAAAAAAAAAAAAAAAAAAAAAAAAAA11111IIIIIIIIII
AAAAAAAAAAAAAAAAAAAAAAAAAAAAAAAAAAAAAAAAAAAAAAAAAA11111IIIIIIIII
AAAAAAAAAAAAAAAAAAAAAAAAAAAAAAAAAAAAAAAAAAAAAAAAAAA11111IIIIIIII
AAAAAAAAAAAAAAAAAAAAAAAAAAAAAAAAAAAAAAAAAAAAAAAAAAAA11111IIIIIII
AAAAAAAAAAAAAAAAAAAAAAAAAAAAAAAAAAAAAAAAAAAAAAAAAAAAA11111IIIIII
AAAAAAAAAAAAAAAAAAAAAAAAAAAAAAAAAAAAAAAAAAAAAAAAAAAAAA11111IIIII
AAAAAAAAAAAAAAAAAAAAAAAAAAAAAAAAAAAAAAAAAAAAAAAAAAAAAAA11111IIII
AAAAAAAAAAAAAAAAAAAAAAAAAAAAAAAAAAAAAAAAAAAAAAAAAAAAAAAA11111III
AAAAAAAAAAAAAAAAAAAAAAAAAAAAAAAAAAAAAAAAAAAAAAAAAAAAAAAAA11111II
AAAAAAAAAAAAAAAAAAAAAAAAAAAAAAAAAAAAAAAAAAAAAAAAAAAAAAAAAA11111I
AAAAAAAAAAAAAAAAAAAAAAAAAAAAAAAAAAAAAAAAAAAAAAAAAAAAAAAAAAA11111
AAAAAAAAAAAAAAAAAAAAAAAAAAAAAAAAAAAAAAAAAAAAAAAAAAAAAAAAAAAA1111
AAAAAAAAAAAAAAAAAAAAAAAAAAAAAAAAAAAAAAAAAAAAAAAAAAAAAAAAAAAAA111
AAAAAAAAAAAAAAAAAAAAAAAAAAAAAAAAAAAAAAAAAAAAAAAAAAAAAAAAAAAAAA11
AAAAAAAAAAAAAAAAAAAAAAAAAAAAAAAAAAAAAAAAAAAAAAAAAAAAAAAAAAAAAAA1
AAAAAAAAAAAAAAAAAAAAAAAAAAAAAAAAAAAAAAAAAAAAAAAAAAAAAAAAAAAAAAAA
[MLOP] Prefetch Degree Mean: 8.00803
[MLOP] Prefetch Degree SD: 0.358399
[MLOP] Max Score Left Mean (%): 89.77
[MLOP] Max Score Left SD (%): 1.33989
[MLOP] Max Score Right Mean (%): 99.6048
[MLOP] Max Score Right SD (%): 0.257011
LLC TOTAL     ACCESS:    4006744  HIT:    2204181  MISS:    1802563  HIT %:    55.0118  MISS %:    44.9882   MPKI: 9.01281
LLC LOAD      ACCESS:     525066  HIT:     492467  MISS:      32599  HIT %:    93.7914  MISS %:    6.20855   MPKI: 0.162995
LLC RFO       ACCESS:       1220  HIT:       1217  MISS:          3  HIT %:    99.7541  MISS %:   0.245902   MPKI: 1.5e-05
LLC PREFETCH  ACCESS:    1722537  HIT:          0  MISS:    1722537  HIT %:          0  MISS %:        100   MPKI: 8.61268
LLC WRITEBACK ACCESS:    1754197  HIT:    1710315  MISS:      43882  HIT %:    97.4985  MISS %:    2.50154   MPKI: 0.21941

RAW hits: 3460
Loads Generated: 70169125
Loads sent to L1D: 70165649
Stores Generated: 14041090
Stores sent to L1D: 14041096

CPU 1 cumulative IPC: 0.814846 instructions: 200485189 cycles: 246040559
ITLB TOTAL     ACCESS:   29430302  HIT:   29430302  MISS:          0  HIT %:        100  MISS %:          0   MPKI: 0
ITLB LOAD      ACCESS:          0  HIT:          0  MISS:          0  HIT %:       -nan  MISS %:       -nan   MPKI: 0
ITLB RFO       ACCESS:          0  HIT:          0  MISS:          0  HIT %:       -nan  MISS %:       -nan   MPKI: 0
ITLB PREFETCH  ACCESS:          0  HIT:          0  MISS:          0  HIT %:       -nan  MISS %:       -nan   MPKI: 0
ITLB WRITEBACK ACCESS:          0  HIT:          0  MISS:          0  HIT %:       -nan  MISS %:       -nan   MPKI: 0
DTLB TOTAL     ACCESS:   25445174  HIT:   25398083  MISS:      47091  HIT %:    99.8149  MISS %:   0.185068   MPKI: 0.234885
DTLB LOAD      ACCESS:          0  HIT:          0  MISS:          0  HIT %:       -nan  MISS %:       -nan   MPKI: 0
DTLB RFO       ACCESS:          0  HIT:          0  MISS:          0  HIT %:       -nan  MISS %:       -nan   MPKI: 0
DTLB PREFETCH  ACCESS:          0  HIT:          0  MISS:          0  HIT %:       -nan  MISS %:       -nan   MPKI: 0
DTLB WRITEBACK ACCESS:          0  HIT:          0  MISS:          0  HIT %:       -nan  MISS %:       -nan   MPKI: 0
STLB TOTAL     ACCESS:    1558194  HIT:    1530681  MISS:      27513  HIT %:    98.2343  MISS %:     1.7657   MPKI: 0.137232
STLB LOAD      ACCESS:          0  HIT:          0  MISS:          0  HIT %:       -nan  MISS %:       -nan   MPKI: 0
STLB RFO       ACCESS:          0  HIT:          0  MISS:          0  HIT %:       -nan  MISS %:       -nan   MPKI: 0
STLB PREFETCH  ACCESS:          0  HIT:          0  MISS:          0  HIT %:       -nan  MISS %:       -nan   MPKI: 0
STLB WRITEBACK ACCESS:          0  HIT:          0  MISS:          0  HIT %:       -nan  MISS %:       -nan   MPKI: 0
L1D TOTAL     ACCESS:   40832314  HIT:   38171603  MISS:    2660711  HIT %:    93.4838  MISS %:    6.51619   MPKI: 13.2714
L1D LOAD      ACCESS:   25398908  HIT:   24105718  MISS:    1293190  HIT %:    94.9085  MISS %:    5.09152   MPKI: 6.4503
L1D RFO       ACCESS:   14068957  HIT:   14065884  MISS:       3073  HIT %:    99.9782  MISS %:  0.0218424   MPKI: 0.0153278
L1D PREFETCH  ACCESS:    1364449  HIT:          1  MISS:    1364448  HIT %: 7.32897e-05  MISS %:    99.9999   MPKI: 6.80573
L1D WRITEBACK ACCESS:          0  HIT:          0  MISS:          0  HIT %:       -nan  MISS %:       -nan   MPKI: 0
L1I TOTAL     ACCESS:   36441703  HIT:   36441703  MISS:          0  HIT %:        100  MISS %:          0   MPKI: 0
L1I LOAD      ACCESS:   36441703  HIT:   36441703  MISS:          0  HIT %:        100  MISS %:          0   MPKI: 0
L1I RFO       ACCESS:          0  HIT:          0  MISS:          0  HIT %:       -nan  MISS %:       -nan   MPKI: 0
L1I PREFETCH  ACCESS:          0  HIT:          0  MISS:          0  HIT %:       -nan  MISS %:       -nan   MPKI: 0
L1I WRITEBACK ACCESS:          0  HIT:          0  MISS:          0  HIT %:       -nan  MISS %:       -nan   MPKI: 0
L2C TOTAL     ACCESS:    4449471  HIT:    2002079  MISS:    2447392  HIT %:    44.9959  MISS %:    55.0041   MPKI: 12.2073
L2C LOAD      ACCESS:     930961  HIT:     411580  MISS:     519381  HIT %:    44.2102  MISS %:    55.7898   MPKI: 2.59062
L2C RFO       ACCESS:       3073  HIT:       1455  MISS:       1618  HIT %:    47.3479  MISS %:    52.6521   MPKI: 0.00807042
L2C PREFETCH  ACCESS:    1726676  HIT:          0  MISS:    1726676  HIT %:          0  MISS %:        100   MPKI: 8.61249
L2C WRITEBACK ACCESS:    1761239  HIT:    1565284  MISS:     195955  HIT %:     88.874  MISS %:     11.126   MPKI: 0.977404
PSCL5 TOTAL     ACCESS:      27513  HIT:      27513  MISS:          0  HIT %:        100  MISS %:          0   MPKI: 0
PSCL5 LOAD      ACCESS:          0  HIT:          0  MISS:          0  HIT %:       -nan  MISS %:       -nan   MPKI: 0
PSCL5 RFO       ACCESS:          0  HIT:          0  MISS:          0  HIT %:       -nan  MISS %:       -nan   MPKI: 0
PSCL5 PREFETCH  ACCESS:          0  HIT:          0  MISS:          0  HIT %:       -nan  MISS %:       -nan   MPKI: 0
PSCL5 WRITEBACK ACCESS:          0  HIT:          0  MISS:          0  HIT %:       -nan  MISS %:       -nan   MPKI: 0
PSCL4 TOTAL     ACCESS:      27513  HIT:      27513  MISS:          0  HIT %:        100  MISS %:          0   MPKI: 0
PSCL4 LOAD      ACCESS:          0  HIT:          0  MISS:          0  HIT %:       -nan  MISS %:       -nan   MPKI: 0
PSCL4 RFO       ACCESS:          0  HIT:          0  MISS:          0  HIT %:       -nan  MISS %:       -nan   MPKI: 0
PSCL4 PREFETCH  ACCESS:          0  HIT:          0  MISS:          0  HIT %:       -nan  MISS %:       -nan   MPKI: 0
PSCL4 WRITEBACK ACCESS:          0  HIT:          0  MISS:          0  HIT %:       -nan  MISS %:       -nan   MPKI: 0
PSCL3 TOTAL     ACCESS:      27450  HIT:      27445  MISS:          5  HIT %:    99.9818  MISS %:  0.0182149   MPKI: 2.49395e-05
PSCL3 LOAD      ACCESS:          0  HIT:          0  MISS:          0  HIT %:       -nan  MISS %:       -nan   MPKI: 0
PSCL3 RFO       ACCESS:          0  HIT:          0  MISS:          0  HIT %:       -nan  MISS %:       -nan   MPKI: 0
PSCL3 PREFETCH  ACCESS:          0  HIT:          0  MISS:          0  HIT %:       -nan  MISS %:       -nan   MPKI: 0
PSCL3 WRITEBACK ACCESS:          0  HIT:          0  MISS:          0  HIT %:       -nan  MISS %:       -nan   MPKI: 0
PSCL2 TOTAL     ACCESS:      27513  HIT:      27419  MISS:         94  HIT %:    99.6583  MISS %:   0.341657   MPKI: 0.000468863
PSCL2 LOAD      ACCESS:          0  HIT:          0  MISS:          0  HIT %:       -nan  MISS %:       -nan   MPKI: 0
PSCL2 RFO       ACCESS:          0  HIT:          0  MISS:          0  HIT %:       -nan  MISS %:       -nan   MPKI: 0
PSCL2 PREFETCH  ACCESS:          0  HIT:          0  MISS:          0  HIT %:       -nan  MISS %:       -nan   MPKI: 0
PSCL2 WRITEBACK ACCESS:          0  HIT:          0  MISS:          0  HIT %:       -nan  MISS %:       -nan   MPKI: 0
=== CPU 1 L1D Prefetcher Statistics ===
[MLOP] History of tracked zone:
IIIIIIIIIIIIIIIIIIIIIIIIIIIIIIIIIIIIIIIIIIIIIIIIIIIIIIIIIIIIIIII
A11111IIIIIIIIIIIIIIIIIIIIIIIIIIIIIIIIIIIIIIIIIIIIIIIIIIIIIIIIII
AA11111IIIIIIIIIIIIIIIIIIIIIIIIIIIIIIIIIIIIIIIIIIIIIIIIIIIIIIIII
AAA11111IIIIIIIIIIIIIIIIIIIIIIIIIIIIIIIIIIIIIIIIIIIIIIIIIIIIIIII
AAAA11111IIIIIIIIIIIIIIIIIIIIIIIIIIIIIIIIIIIIIIIIIIIIIIIIIIIIIII
AAAAA11111IIIIIIIIIIIIIIIIIIIIIIIIIIIIIIIIIIIIIIIIIIIIIIIIIIIIII
AAAAAA11111IIIIIIIIIIIIIIIIIIIIIIIIIIIIIIIIIIIIIIIIIIIIIIIIIIIII
AAAAAAA11111IIIIIIIIIIIIIIIIIIIIIIIIIIIIIIIIIIIIIIIIIIIIIIIIIIII
AAAAAAAA11111IIIIIIIIIIIIIIIIIIIIIIIIIIIIIIIIIIIIIIIIIIIIIIIIIII
AAAAAAAAA11111IIIIIIIIIIIIIIIIIIIIIIIIIIIIIIIIIIIIIIIIIIIIIIIIII
AAAAAAAAAA11111IIIIIIIIIIIIIIIIIIIIIIIIIIIIIIIIIIIIIIIIIIIIIIIII
AAAAAAAAAAA11111IIIIIIIIIIIIIIIIIIIIIIIIIIIIIIIIIIIIIIIIIIIIIIII
AAAAAAAAAAAA11111IIIIIIIIIIIIIIIIIIIIIIIIIIIIIIIIIIIIIIIIIIIIIII
AAAAAAAAAAAAA11111IIIIIIIIIIIIIIIIIIIIIIIIIIIIIIIIIIIIIIIIIIIIII
AAAAAAAAAAAAAA11111IIIIIIIIIIIIIIIIIIIIIIIIIIIIIIIIIIIIIIIIIIIII
AAAAAAAAAAAAAAA11111IIIIIIIIIIIIIIIIIIIIIIIIIIIIIIIIIIIIIIIIIIII
AAAAAAAAAAAAAAAA11111IIIIIIIIIIIIIIIIIIIIIIIIIIIIIIIIIIIIIIIIIII
AAAAAAAAAAAAAAAAA11111IIIIIIIIIIIIIIIIIIIIIIIIIIIIIIIIIIIIIIIIII
AAAAAAAAAAAAAAAAAA11111IIIIIIIIIIIIIIIIIIIIIIIIIIIIIIIIIIIIIIIII
AAAAAAAAAAAAAAAAAAA11111IIIIIIIIIIIIIIIIIIIIIIIIIIIIIIIIIIIIIIII
AAAAAAAAAAAAAAAAAAAA11111IIIIIIIIIIIIIIIIIIIIIIIIIIIIIIIIIIIIIII
AAAAAAAAAAAAAAAAAAAAA11111IIIIIIIIIIIIIIIIIIIIIIIIIIIIIIIIIIIIII
AAAAAAAAAAAAAAAAAAAAAA11111IIIIIIIIIIIIIIIIIIIIIIIIIIIIIIIIIIIII
AAAAAAAAAAAAAAAAAAAAAAA11111IIIIIIIIIIIIIIIIIIIIIIIIIIIIIIIIIIII
AAAAAAAAAAAAAAAAAAAAAAAA11111IIIIIIIIIIIIIIIIIIIIIIIIIIIIIIIIIII
AAAAAAAAAAAAAAAAAAAAAAAAA11111IIIIIIIIIIIIIIIIIIIIIIIIIIIIIIIIII
AAAAAAAAAAAAAAAAAAAAAAAAAA11111IIIIIIIIIIIIIIIIIIIIIIIIIIIIIIIII
AAAAAAAAAAAAAAAAAAAAAAAAAAA11111IIIIIIIIIIIIIIIIIIIIIIIIIIIIIIII
AAAAAAAAAAAAAAAAAAAAAAAAAAAA11111IIIIIIIIIIIIIIIIIIIIIIIIIIIIIII
AAAAAAAAAAAAAAAAAAAAAAAAAAAAA11111IIIIIIIIIIIIIIIIIIIIIIIIIIIIII
AAAAAAAAAAAAAAAAAAAAAAAAAAAAAA11111IIIIIIIIIIIIIIIIIIIIIIIIIIIII
AAAAAAAAAAAAAAAAAAAAAAAAAAAAAAA11111IIIIIIIIIIIIIIIIIIIIIIIIIIII
AAAAAAAAAAAAAAAAAAAAAAAAAAAAAAAA11111IIIIIIIIIIIIIIIIIIIIIIIIIII
AAAAAAAAAAAAAAAAAAAAAAAAAAAAAAAAA11111IIIIIIIIIIIIIIIIIIIIIIIIII
AAAAAAAAAAAAAAAAAAAAAAAAAAAAAAAAAA11111IIIIIIIIIIIIIIIIIIIIIIIII
AAAAAAAAAAAAAAAAAAAAAAAAAAAAAAAAAAA11111IIIIIIIIIIIIIIIIIIIIIIII
AAAAAAAAAAAAAAAAAAAAAAAAAAAAAAAAAAAA11111IIIIIIIIIIIIIIIIIIIIIII
AAAAAAAAAAAAAAAAAAAAAAAAAAAAAAAAAAAAA11111IIIIIIIIIIIIIIIIIIIIII
AAAAAAAAAAAAAAAAAAAAAAAAAAAAAAAAAAAAAA11111IIIIIIIIIIIIIIIIIIIII
AAAAAAAAAAAAAAAAAAAAAAAAAAAAAAAAAAAAAAA11111IIIIIIIIIIIIIIIIIIII
AAAAAAAAAAAAAAAAAAAAAAAAAAAAAAAAAAAAAAAA11111IIIIIIIIIIIIIIIIIII
AAAAAAAAAAAAAAAAAAAAAAAAAAAAAAAAAAAAAAAAA11111IIIIIIIIIIIIIIIIII
AAAAAAAAAAAAAAAAAAAAAAAAAAAAAAAAAAAAAAAAAA11111IIIIIIIIIIIIIIIII
AAAAAAAAAAAAAAAAAAAAAAAAAAAAAAAAAAAAAAAAAAA11111IIIIIIIIIIIIIIII
AAAAAAAAAAAAAAAAAAAAAAAAAAAAAAAAAAAAAAAAAAAA11111IIIIIIIIIIIIIII
AAAAAAAAAAAAAAAAAAAAAAAAAAAAAAAAAAAAAAAAAAAAA11111IIIIIIIIIIIIII
AAAAAAAAAAAAAAAAAAAAAAAAAAAAAAAAAAAAAAAAAAAAAA11111IIIIIIIIIIIII
AAAAAAAAAAAAAAAAAAAAAAAAAAAAAAAAAAAAAAAAAAAAAAA11111IIIIIIIIIIII
AAAAAAAAAAAAAAAAAAAAAAAAAAAAAAAAAAAAAAAAAAAAAAAA11111IIIIIIIIIII
AAAAAAAAAAAAAAAAAAAAAAAAAAAAAAAAAAAAAAAAAAAAAAAAA11111IIIIIIIIII
AAAAAAAAAAAAAAAAAAAAAAAAAAAAAAAAAAAAAAAAAAAAAAAAAA11111IIIIIIIII
AAAAAAAAAAAAAAAAAAAAAAAAAAAAAAAAAAAAAAAAAAAAAAAAAAA11111IIIIIIII
AAAAAAAAAAAAAAAAAAAAAAAAAAAAAAAAAAAAAAAAAAAAAAAAAAAA11111IIIIIII
AAAAAAAAAAAAAAAAAAAAAAAAAAAAAAAAAAAAAAAAAAAAAAAAAAAAA11111IIIIII
AAAAAAAAAAAAAAAAAAAAAAAAAAAAAAAAAAAAAAAAAAAAAAAAAAAAAA11111IIIII
AAAAAAAAAAAAAAAAAAAAAAAAAAAAAAAAAAAAAAAAAAAAAAAAAAAAAAA11111IIII
AAAAAAAAAAAAAAAAAAAAAAAAAAAAAAAAAAAAAAAAAAAAAAAAAAAAAAAA11111III
AAAAAAAAAAAAAAAAAAAAAAAAAAAAAAAAAAAAAAAAAAAAAAAAAAAAAAAAA11111II
AAAAAAAAAAAAAAAAAAAAAAAAAAAAAAAAAAAAAAAAAAAAAAAAAAAAAAAAAA11111I
AAAAAAAAAAAAAAAAAAAAAAAAAAAAAAAAAAAAAAAAAAAAAAAAAAAAAAAAAAA11111
AAAAAAAAAAAAAAAAAAAAAAAAAAAAAAAAAAAAAAAAAAAAAAAAAAAAAAAAAAAA1111
AAAAAAAAAAAAAAAAAAAAAAAAAAAAAAAAAAAAAAAAAAAAAAAAAAAAAAAAAAAAA111
AAAAAAAAAAAAAAAAAAAAAAAAAAAAAAAAAAAAAAAAAAAAAAAAAAAAAAAAAAAAAA11
AAAAAAAAAAAAAAAAAAAAAAAAAAAAAAAAAAAAAAAAAAAAAAAAAAAAAAAAAAAAAAA1
AAAAAAAAAAAAAAAAAAAAAAAAAAAAAAAAAAAAAAAAAAAAAAAAAAAAAAAAAAAAAAAA
[MLOP] Prefetch Degree Mean: 7.99867
[MLOP] Prefetch Degree SD: 0.37771
[MLOP] Max Score Left Mean (%): 89.8285
[MLOP] Max Score Left SD (%): 1.33538
[MLOP] Max Score Right Mean (%): 99.5997
[MLOP] Max Score Right SD (%): 0.261789
LLC TOTAL     ACCESS:    4010453  HIT:    2205359  MISS:    1805094  HIT %:    54.9903  MISS %:    45.0097   MPKI: 9.00363
LLC LOAD      ACCESS:     519381  HIT:     486830  MISS:      32551  HIT %:    93.7327  MISS %:    6.26727   MPKI: 0.162361
LLC RFO       ACCESS:       1618  HIT:       1615  MISS:          3  HIT %:    99.8146  MISS %:   0.185414   MPKI: 1.49637e-05
LLC PREFETCH  ACCESS:    1726676  HIT:          0  MISS:    1726676  HIT %:          0  MISS %:        100   MPKI: 8.61249
LLC WRITEBACK ACCESS:    1759016  HIT:    1716703  MISS:      42313  HIT %:    97.5945  MISS %:    2.40549   MPKI: 0.211053

RAW hits: 3470
Loads Generated: 70339360
Loads sent to L1D: 70335896
Stores Generated: 14075156
Stores sent to L1D: 14075158

CPU 2 cumulative IPC: 0.81472 instructions: 200454202 cycles: 246040559
ITLB TOTAL     ACCESS:   29422801  HIT:   29422801  MISS:          0  HIT %:        100  MISS %:          0   MPKI: 0
ITLB LOAD      ACCESS:          0  HIT:          0  MISS:          0  HIT %:       -nan  MISS %:       -nan   MPKI: 0
ITLB RFO       ACCESS:          0  HIT:          0  MISS:          0  HIT %:       -nan  MISS %:       -nan   MPKI: 0
ITLB PREFETCH  ACCESS:          0  HIT:          0  MISS:          0  HIT %:       -nan  MISS %:       -nan   MPKI: 0
ITLB WRITEBACK ACCESS:          0  HIT:          0  MISS:          0  HIT %:       -nan  MISS %:       -nan   MPKI: 0
DTLB TOTAL     ACCESS:   25440022  HIT:   25392936  MISS:      47086  HIT %:    99.8149  MISS %:   0.185086   MPKI: 0.234897
DTLB LOAD      ACCESS:          0  HIT:          0  MISS:          0  HIT %:       -nan  MISS %:       -nan   MPKI: 0
DTLB RFO       ACCESS:          0  HIT:          0  MISS:          0  HIT %:       -nan  MISS %:       -nan   MPKI: 0
DTLB PREFETCH  ACCESS:          0  HIT:          0  MISS:          0  HIT %:       -nan  MISS %:       -nan   MPKI: 0
DTLB WRITEBACK ACCESS:          0  HIT:          0  MISS:          0  HIT %:       -nan  MISS %:       -nan   MPKI: 0
STLB TOTAL     ACCESS:    1557947  HIT:    1530438  MISS:      27509  HIT %:    98.2343  MISS %:    1.76572   MPKI: 0.137233
STLB LOAD      ACCESS:          0  HIT:          0  MISS:          0  HIT %:       -nan  MISS %:       -nan   MPKI: 0
STLB RFO       ACCESS:          0  HIT:          0  MISS:          0  HIT %:       -nan  MISS %:       -nan   MPKI: 0
STLB PREFETCH  ACCESS:          0  HIT:          0  MISS:          0  HIT %:       -nan  MISS %:       -nan   MPKI: 0
STLB WRITEBACK ACCESS:          0  HIT:          0  MISS:          0  HIT %:       -nan  MISS %:       -nan   MPKI: 0
L1D TOTAL     ACCESS:   40826421  HIT:   38166116  MISS:    2660305  HIT %:    93.4839  MISS %:    6.51614   MPKI: 13.2714
L1D LOAD      ACCESS:   25394965  HIT:   24101640  MISS:    1293325  HIT %:    94.9072  MISS %:    5.09284   MPKI: 6.45197
L1D RFO       ACCESS:   14067547  HIT:   14064474  MISS:       3073  HIT %:    99.9782  MISS %:  0.0218446   MPKI: 0.0153302
L1D PREFETCH  ACCESS:    1363909  HIT:          2  MISS:    1363907  HIT %: 0.000146637  MISS %:    99.9999   MPKI: 6.80408
L1D WRITEBACK ACCESS:          0  HIT:          0  MISS:          0  HIT %:       -nan  MISS %:       -nan   MPKI: 0
L1I TOTAL     ACCESS:   36433604  HIT:   36433604  MISS:          0  HIT %:        100  MISS %:          0   MPKI: 0
L1I LOAD      ACCESS:   36433604  HIT:   36433604  MISS:          0  HIT %:        100  MISS %:          0   MPKI: 0
L1I RFO       ACCESS:          0  HIT:          0  MISS:          0  HIT %:       -nan  MISS %:       -nan   MPKI: 0
L1I PREFETCH  ACCESS:          0  HIT:          0  MISS:          0  HIT %:       -nan  MISS %:       -nan   MPKI: 0
L1I WRITEBACK ACCESS:          0  HIT:          0  MISS:          0  HIT %:       -nan  MISS %:       -nan   MPKI: 0
L2C TOTAL     ACCESS:    4448793  HIT:    2005229  MISS:    2443564  HIT %:    45.0736  MISS %:    54.9264   MPKI: 12.1901
L2C LOAD      ACCESS:     930834  HIT:     414756  MISS:     516078  HIT %:    44.5575  MISS %:    55.4425   MPKI: 2.57454
L2C RFO       ACCESS:       3073  HIT:       2143  MISS:        930  HIT %:    69.7364  MISS %:    30.2636   MPKI: 0.00463946
L2C PREFETCH  ACCESS:    1726398  HIT:          0  MISS:    1726398  HIT %:          0  MISS %:        100   MPKI: 8.61243
L2C WRITEBACK ACCESS:    1760970  HIT:    1564544  MISS:     196426  HIT %:    88.8456  MISS %:    11.1544   MPKI: 0.979905
PSCL5 TOTAL     ACCESS:      27509  HIT:      27509  MISS:          0  HIT %:        100  MISS %:          0   MPKI: 0
PSCL5 LOAD      ACCESS:          0  HIT:          0  MISS:          0  HIT %:       -nan  MISS %:       -nan   MPKI: 0
PSCL5 RFO       ACCESS:          0  HIT:          0  MISS:          0  HIT %:       -nan  MISS %:       -nan   MPKI: 0
PSCL5 PREFETCH  ACCESS:          0  HIT:          0  MISS:          0  HIT %:       -nan  MISS %:       -nan   MPKI: 0
PSCL5 WRITEBACK ACCESS:          0  HIT:          0  MISS:          0  HIT %:       -nan  MISS %:       -nan   MPKI: 0
PSCL4 TOTAL     ACCESS:      27509  HIT:      27509  MISS:          0  HIT %:        100  MISS %:          0   MPKI: 0
PSCL4 LOAD      ACCESS:          0  HIT:          0  MISS:          0  HIT %:       -nan  MISS %:       -nan   MPKI: 0
PSCL4 RFO       ACCESS:          0  HIT:          0  MISS:          0  HIT %:       -nan  MISS %:       -nan   MPKI: 0
PSCL4 PREFETCH  ACCESS:          0  HIT:          0  MISS:          0  HIT %:       -nan  MISS %:       -nan   MPKI: 0
PSCL4 WRITEBACK ACCESS:          0  HIT:          0  MISS:          0  HIT %:       -nan  MISS %:       -nan   MPKI: 0
PSCL3 TOTAL     ACCESS:      27446  HIT:      27441  MISS:          5  HIT %:    99.9818  MISS %:  0.0182176   MPKI: 2.49434e-05
PSCL3 LOAD      ACCESS:          0  HIT:          0  MISS:          0  HIT %:       -nan  MISS %:       -nan   MPKI: 0
PSCL3 RFO       ACCESS:          0  HIT:          0  MISS:          0  HIT %:       -nan  MISS %:       -nan   MPKI: 0
PSCL3 PREFETCH  ACCESS:          0  HIT:          0  MISS:          0  HIT %:       -nan  MISS %:       -nan   MPKI: 0
PSCL3 WRITEBACK ACCESS:          0  HIT:          0  MISS:          0  HIT %:       -nan  MISS %:       -nan   MPKI: 0
PSCL2 TOTAL     ACCESS:      27509  HIT:      27415  MISS:         94  HIT %:    99.6583  MISS %:   0.341706   MPKI: 0.000468935
PSCL2 LOAD      ACCESS:          0  HIT:          0  MISS:          0  HIT %:       -nan  MISS %:       -nan   MPKI: 0
PSCL2 RFO       ACCESS:          0  HIT:          0  MISS:          0  HIT %:       -nan  MISS %:       -nan   MPKI: 0
PSCL2 PREFETCH  ACCESS:          0  HIT:          0  MISS:          0  HIT %:       -nan  MISS %:       -nan   MPKI: 0
PSCL2 WRITEBACK ACCESS:          0  HIT:          0  MISS:          0  HIT %:       -nan  MISS %:       -nan   MPKI: 0
=== CPU 2 L1D Prefetcher Statistics ===
[MLOP] History of tracked zone:
IIIIIIIIIIIIIIIIIIIIIIIIIIIIIIIIIIIIIIIIIIIIIIIIIIIIIIIIIIIIIIII
A11111IIIIIIIIIIIIIIIIIIIIIIIIIIIIIIIIIIIIIIIIIIIIIIIIIIIIIIIIII
AA11111IIIIIIIIIIIIIIIIIIIIIIIIIIIIIIIIIIIIIIIIIIIIIIIIIIIIIIIII
AAA11111IIIIIIIIIIIIIIIIIIIIIIIIIIIIIIIIIIIIIIIIIIIIIIIIIIIIIIII
AAAA11111IIIIIIIIIIIIIIIIIIIIIIIIIIIIIIIIIIIIIIIIIIIIIIIIIIIIIII
AAAAA11111IIIIIIIIIIIIIIIIIIIIIIIIIIIIIIIIIIIIIIIIIIIIIIIIIIIIII
AAAAAA11111IIIIIIIIIIIIIIIIIIIIIIIIIIIIIIIIIIIIIIIIIIIIIIIIIIIII
AAAAAAA11111IIIIIIIIIIIIIIIIIIIIIIIIIIIIIIIIIIIIIIIIIIIIIIIIIIII
AAAAAAAA11111IIIIIIIIIIIIIIIIIIIIIIIIIIIIIIIIIIIIIIIIIIIIIIIIIII
AAAAAAAAA11111IIIIIIIIIIIIIIIIIIIIIIIIIIIIIIIIIIIIIIIIIIIIIIIIII
AAAAAAAAAA11111IIIIIIIIIIIIIIIIIIIIIIIIIIIIIIIIIIIIIIIIIIIIIIIII
AAAAAAAAAAA11111IIIIIIIIIIIIIIIIIIIIIIIIIIIIIIIIIIIIIIIIIIIIIIII
AAAAAAAAAAAA11111IIIIIIIIIIIIIIIIIIIIIIIIIIIIIIIIIIIIIIIIIIIIIII
AAAAAAAAAAAAA11111IIIIIIIIIIIIIIIIIIIIIIIIIIIIIIIIIIIIIIIIIIIIII
AAAAAAAAAAAAAA11111IIIIIIIIIIIIIIIIIIIIIIIIIIIIIIIIIIIIIIIIIIIII
AAAAAAAAAAAAAAA11111IIIIIIIIIIIIIIIIIIIIIIIIIIIIIIIIIIIIIIIIIIII
AAAAAAAAAAAAAAAA11111IIIIIIIIIIIIIIIIIIIIIIIIIIIIIIIIIIIIIIIIIII
AAAAAAAAAAAAAAAAA11111IIIIIIIIIIIIIIIIIIIIIIIIIIIIIIIIIIIIIIIIII
AAAAAAAAAAAAAAAAAA11111IIIIIIIIIIIIIIIIIIIIIIIIIIIIIIIIIIIIIIIII
AAAAAAAAAAAAAAAAAAA11111IIIIIIIIIIIIIIIIIIIIIIIIIIIIIIIIIIIIIIII
AAAAAAAAAAAAAAAAAAAA11111IIIIIIIIIIIIIIIIIIIIIIIIIIIIIIIIIIIIIII
AAAAAAAAAAAAAAAAAAAAA11111IIIIIIIIIIIIIIIIIIIIIIIIIIIIIIIIIIIIII
AAAAAAAAAAAAAAAAAAAAAA11111IIIIIIIIIIIIIIIIIIIIIIIIIIIIIIIIIIIII
AAAAAAAAAAAAAAAAAAAAAAA11111IIIIIIIIIIIIIIIIIIIIIIIIIIIIIIIIIIII
AAAAAAAAAAAAAAAAAAAAAAAA11111IIIIIIIIIIIIIIIIIIIIIIIIIIIIIIIIIII
AAAAAAAAAAAAAAAAAAAAAAAAA11111IIIIIIIIIIIIIIIIIIIIIIIIIIIIIIIIII
AAAAAAAAAAAAAAAAAAAAAAAAAA11111IIIIIIIIIIIIIIIIIIIIIIIIIIIIIIIII
AAAAAAAAAAAAAAAAAAAAAAAAAAA11111IIIIIIIIIIIIIIIIIIIIIIIIIIIIIIII
AAAAAAAAAAAAAAAAAAAAAAAAAAAA11111IIIIIIIIIIIIIIIIIIIIIIIIIIIIIII
AAAAAAAAAAAAAAAAAAAAAAAAAAAAA11111IIIIIIIIIIIIIIIIIIIIIIIIIIIIII
AAAAAAAAAAAAAAAAAAAAAAAAAAAAAA11111IIIIIIIIIIIIIIIIIIIIIIIIIIIII
AAAAAAAAAAAAAAAAAAAAAAAAAAAAAAA11111IIIIIIIIIIIIIIIIIIIIIIIIIIII
AAAAAAAAAAAAAAAAAAAAAAAAAAAAAAAA11111IIIIIIIIIIIIIIIIIIIIIIIIIII
AAAAAAAAAAAAAAAAAAAAAAAAAAAAAAAAA11111IIIIIIIIIIIIIIIIIIIIIIIIII
AAAAAAAAAAAAAAAAAAAAAAAAAAAAAAAAAA11111IIIIIIIIIIIIIIIIIIIIIIIII
AAAAAAAAAAAAAAAAAAAAAAAAAAAAAAAAAAA11111IIIIIIIIIIIIIIIIIIIIIIII
AAAAAAAAAAAAAAAAAAAAAAAAAAAAAAAAAAAA11111IIIIIIIIIIIIIIIIIIIIIII
AAAAAAAAAAAAAAAAAAAAAAAAAAAAAAAAAAAAA11111IIIIIIIIIIIIIIIIIIIIII
AAAAAAAAAAAAAAAAAAAAAAAAAAAAAAAAAAAAAA11111IIIIIIIIIIIIIIIIIIIII
AAAAAAAAAAAAAAAAAAAAAAAAAAAAAAAAAAAAAAA11111IIIIIIIIIIIIIIIIIIII
AAAAAAAAAAAAAAAAAAAAAAAAAAAAAAAAAAAAAAAA11111IIIIIIIIIIIIIIIIIII
AAAAAAAAAAAAAAAAAAAAAAAAAAAAAAAAAAAAAAAAA11111IIIIIIIIIIIIIIIIII
AAAAAAAAAAAAAAAAAAAAAAAAAAAAAAAAAAAAAAAAAA11111IIIIIIIIIIIIIIIII
AAAAAAAAAAAAAAAAAAAAAAAAAAAAAAAAAAAAAAAAAAA11111IIIIIIIIIIIIIIII
AAAAAAAAAAAAAAAAAAAAAAAAAAAAAAAAAAAAAAAAAAAA11111IIIIIIIIIIIIIII
AAAAAAAAAAAAAAAAAAAAAAAAAAAAAAAAAAAAAAAAAAAAA11111IIIIIIIIIIIIII
AAAAAAAAAAAAAAAAAAAAAAAAAAAAAAAAAAAAAAAAAAAAAA11111IIIIIIIIIIIII
AAAAAAAAAAAAAAAAAAAAAAAAAAAAAAAAAAAAAAAAAAAAAAA11111IIIIIIIIIIII
AAAAAAAAAAAAAAAAAAAAAAAAAAAAAAAAAAAAAAAAAAAAAAAA11111IIIIIIIIIII
AAAAAAAAAAAAAAAAAAAAAAAAAAAAAAAAAAAAAAAAAAAAAAAAA11111IIIIIIIIII
AAAAAAAAAAAAAAAAAAAAAAAAAAAAAAAAAAAAAAAAAAAAAAAAAA11111IIIIIIIII
AAAAAAAAAAAAAAAAAAAAAAAAAAAAAAAAAAAAAAAAAAAAAAAAAAA11111IIIIIIII
AAAAAAAAAAAAAAAAAAAAAAAAAAAAAAAAAAAAAAAAAAAAAAAAAAAA11111IIIIIII
AAAAAAAAAAAAAAAAAAAAAAAAAAAAAAAAAAAAAAAAAAAAAAAAAAAAA11111IIIIII
AAAAAAAAAAAAAAAAAAAAAAAAAAAAAAAAAAAAAAAAAAAAAAAAAAAAAA11111IIIII
AAAAAAAAAAAAAAAAAAAAAAAAAAAAAAAAAAAAAAAAAAAAAAAAAAAAAAA11111IIII
AAAAAAAAAAAAAAAAAAAAAAAAAAAAAAAAAAAAAAAAAAAAAAAAAAAAAAAA11111III
AAAAAAAAAAAAAAAAAAAAAAAAAAAAAAAAAAAAAAAAAAAAAAAAAAAAAAAAA11111II
AAAAAAAAAAAAAAAAAAAAAAAAAAAAAAAAAAAAAAAAAAAAAAAAAAAAAAAAAA11111I
AAAAAAAAAAAAAAAAAAAAAAAAAAAAAAAAAAAAAAAAAAAAAAAAAAAAAAAAAAA11111
AAAAAAAAAAAAAAAAAAAAAAAAAAAAAAAAAAAAAAAAAAAAAAAAAAAAAAAAAAAA1111
AAAAAAAAAAAAAAAAAAAAAAAAAAAAAAAAAAAAAAAAAAAAAAAAAAAAAAAAAAAAA111
AAAAAAAAAAAAAAAAAAAAAAAAAAAAAAAAAAAAAAAAAAAAAAAAAAAAAAAAAAAAAA11
AAAAAAAAAAAAAAAAAAAAAAAAAAAAAAAAAAAAAAAAAAAAAAAAAAAAAAAAAAAAAAA1
AAAAAAAAAAAAAAAAAAAAAAAAAAAAAAAAAAAAAAAAAAAAAAAAAAAAAAAAAAAAAAAA
[MLOP] Prefetch Degree Mean: 7.99867
[MLOP] Prefetch Degree SD: 0.377459
[MLOP] Max Score Left Mean (%): 89.768
[MLOP] Max Score Left SD (%): 1.38262
[MLOP] Max Score Right Mean (%): 99.6043
[MLOP] Max Score Right SD (%): 0.259022
LLC TOTAL     ACCESS:    4005106  HIT:    2200401  MISS:    1804705  HIT %:    54.9399  MISS %:    45.0601   MPKI: 9.00308
LLC LOAD      ACCESS:     516078  HIT:     483573  MISS:      32505  HIT %:    93.7015  MISS %:    6.29847   MPKI: 0.162157
LLC RFO       ACCESS:        930  HIT:        926  MISS:          4  HIT %:    99.5699  MISS %:   0.430108   MPKI: 1.99547e-05
LLC PREFETCH  ACCESS:    1726398  HIT:          0  MISS:    1726398  HIT %:          0  MISS %:        100   MPKI: 8.61243
LLC WRITEBACK ACCESS:    1757968  HIT:    1715719  MISS:      42249  HIT %:    97.5967  MISS %:    2.40329   MPKI: 0.210766

RAW hits: 3470
Loads Generated: 70328486
Loads sent to L1D: 70325016
Stores Generated: 14072976
Stores sent to L1D: 14072984

CPU 3 cumulative IPC: 0.813386 instructions: 200125842 cycles: 246040560
ITLB TOTAL     ACCESS:   29397734  HIT:   29397734  MISS:          0  HIT %:        100  MISS %:          0   MPKI: 0
ITLB LOAD      ACCESS:          0  HIT:          0  MISS:          0  HIT %:       -nan  MISS %:       -nan   MPKI: 0
ITLB RFO       ACCESS:          0  HIT:          0  MISS:          0  HIT %:       -nan  MISS %:       -nan   MPKI: 0
ITLB PREFETCH  ACCESS:          0  HIT:          0  MISS:          0  HIT %:       -nan  MISS %:       -nan   MPKI: 0
ITLB WRITEBACK ACCESS:          0  HIT:          0  MISS:          0  HIT %:       -nan  MISS %:       -nan   MPKI: 0
DTLB TOTAL     ACCESS:   25405169  HIT:   25358161  MISS:      47008  HIT %:     99.815  MISS %:   0.185033   MPKI: 0.234892
DTLB LOAD      ACCESS:          0  HIT:          0  MISS:          0  HIT %:       -nan  MISS %:       -nan   MPKI: 0
DTLB RFO       ACCESS:          0  HIT:          0  MISS:          0  HIT %:       -nan  MISS %:       -nan   MPKI: 0
DTLB PREFETCH  ACCESS:          0  HIT:          0  MISS:          0  HIT %:       -nan  MISS %:       -nan   MPKI: 0
DTLB WRITEBACK ACCESS:          0  HIT:          0  MISS:          0  HIT %:       -nan  MISS %:       -nan   MPKI: 0
STLB TOTAL     ACCESS:    1555487  HIT:    1528022  MISS:      27465  HIT %:    98.2343  MISS %:    1.76568   MPKI: 0.137239
STLB LOAD      ACCESS:          0  HIT:          0  MISS:          0  HIT %:       -nan  MISS %:       -nan   MPKI: 0
STLB RFO       ACCESS:          0  HIT:          0  MISS:          0  HIT %:       -nan  MISS %:       -nan   MPKI: 0
STLB PREFETCH  ACCESS:          0  HIT:          0  MISS:          0  HIT %:       -nan  MISS %:       -nan   MPKI: 0
STLB WRITEBACK ACCESS:          0  HIT:          0  MISS:          0  HIT %:       -nan  MISS %:       -nan   MPKI: 0
L1D TOTAL     ACCESS:   40756698  HIT:   38100736  MISS:    2655962  HIT %:    93.4834  MISS %:    6.51663   MPKI: 13.2715
L1D LOAD      ACCESS:   25350434  HIT:   24060011  MISS:    1290423  HIT %:    94.9097  MISS %:    5.09034   MPKI: 6.44806
L1D RFO       ACCESS:   14043791  HIT:   14040725  MISS:       3066  HIT %:    99.9782  MISS %:  0.0218317   MPKI: 0.0153204
L1D PREFETCH  ACCESS:    1362473  HIT:          0  MISS:    1362473  HIT %:          0  MISS %:        100   MPKI: 6.80808
L1D WRITEBACK ACCESS:          0  HIT:          0  MISS:          0  HIT %:       -nan  MISS %:       -nan   MPKI: 0
L1I TOTAL     ACCESS:   36395456  HIT:   36395456  MISS:          0  HIT %:        100  MISS %:          0   MPKI: 0
L1I LOAD      ACCESS:   36395456  HIT:   36395456  MISS:          0  HIT %:        100  MISS %:          0   MPKI: 0
L1I RFO       ACCESS:          0  HIT:          0  MISS:          0  HIT %:       -nan  MISS %:       -nan   MPKI: 0
L1I PREFETCH  ACCESS:          0  HIT:          0  MISS:          0  HIT %:       -nan  MISS %:       -nan   MPKI: 0
L1I WRITEBACK ACCESS:          0  HIT:          0  MISS:          0  HIT %:       -nan  MISS %:       -nan   MPKI: 0
L2C TOTAL     ACCESS:    4441516  HIT:    1988310  MISS:    2453206  HIT %:    44.7665  MISS %:    55.2335   MPKI: 12.2583
L2C LOAD      ACCESS:     929286  HIT:     396854  MISS:     532432  HIT %:    42.7053  MISS %:    57.2947   MPKI: 2.66049
L2C RFO       ACCESS:       3066  HIT:       1513  MISS:       1553  HIT %:    49.3477  MISS %:    50.6523   MPKI: 0.00776012
L2C PREFETCH  ACCESS:    1723610  HIT:          0  MISS:    1723610  HIT %:          0  MISS %:        100   MPKI: 8.61263
L2C WRITEBACK ACCESS:    1758080  HIT:    1566201  MISS:     191879  HIT %:    89.0859  MISS %:    10.9141   MPKI: 0.958792
PSCL5 TOTAL     ACCESS:      27465  HIT:      27465  MISS:          0  HIT %:        100  MISS %:          0   MPKI: 0
PSCL5 LOAD      ACCESS:          0  HIT:          0  MISS:          0  HIT %:       -nan  MISS %:       -nan   MPKI: 0
PSCL5 RFO       ACCESS:          0  HIT:          0  MISS:          0  HIT %:       -nan  MISS %:       -nan   MPKI: 0
PSCL5 PREFETCH  ACCESS:          0  HIT:          0  MISS:          0  HIT %:       -nan  MISS %:       -nan   MPKI: 0
PSCL5 WRITEBACK ACCESS:          0  HIT:          0  MISS:          0  HIT %:       -nan  MISS %:       -nan   MPKI: 0
PSCL4 TOTAL     ACCESS:      27465  HIT:      27465  MISS:          0  HIT %:        100  MISS %:          0   MPKI: 0
PSCL4 LOAD      ACCESS:          0  HIT:          0  MISS:          0  HIT %:       -nan  MISS %:       -nan   MPKI: 0
PSCL4 RFO       ACCESS:          0  HIT:          0  MISS:          0  HIT %:       -nan  MISS %:       -nan   MPKI: 0
PSCL4 PREFETCH  ACCESS:          0  HIT:          0  MISS:          0  HIT %:       -nan  MISS %:       -nan   MPKI: 0
PSCL4 WRITEBACK ACCESS:          0  HIT:          0  MISS:          0  HIT %:       -nan  MISS %:       -nan   MPKI: 0
PSCL3 TOTAL     ACCESS:      27402  HIT:      27397  MISS:          5  HIT %:    99.9818  MISS %:  0.0182468   MPKI: 2.49843e-05
PSCL3 LOAD      ACCESS:          0  HIT:          0  MISS:          0  HIT %:       -nan  MISS %:       -nan   MPKI: 0
PSCL3 RFO       ACCESS:          0  HIT:          0  MISS:          0  HIT %:       -nan  MISS %:       -nan   MPKI: 0
PSCL3 PREFETCH  ACCESS:          0  HIT:          0  MISS:          0  HIT %:       -nan  MISS %:       -nan   MPKI: 0
PSCL3 WRITEBACK ACCESS:          0  HIT:          0  MISS:          0  HIT %:       -nan  MISS %:       -nan   MPKI: 0
PSCL2 TOTAL     ACCESS:      27465  HIT:      27371  MISS:         94  HIT %:    99.6577  MISS %:   0.342254   MPKI: 0.000469704
PSCL2 LOAD      ACCESS:          0  HIT:          0  MISS:          0  HIT %:       -nan  MISS %:       -nan   MPKI: 0
PSCL2 RFO       ACCESS:          0  HIT:          0  MISS:          0  HIT %:       -nan  MISS %:       -nan   MPKI: 0
PSCL2 PREFETCH  ACCESS:          0  HIT:          0  MISS:          0  HIT %:       -nan  MISS %:       -nan   MPKI: 0
PSCL2 WRITEBACK ACCESS:          0  HIT:          0  MISS:          0  HIT %:       -nan  MISS %:       -nan   MPKI: 0
=== CPU 3 L1D Prefetcher Statistics ===
[MLOP] History of tracked zone:
IIIIIIIIIIIIIIIIIIIIIIIIIIIIIIIIIIIIIIIIIIIIIIIIIIIIIIIIIIIIIIII
A11111IIIIIIIIIIIIIIIIIIIIIIIIIIIIIIIIIIIIIIIIIIIIIIIIIIIIIIIIII
AA11111IIIIIIIIIIIIIIIIIIIIIIIIIIIIIIIIIIIIIIIIIIIIIIIIIIIIIIIII
AAA11111IIIIIIIIIIIIIIIIIIIIIIIIIIIIIIIIIIIIIIIIIIIIIIIIIIIIIIII
AAAA11111IIIIIIIIIIIIIIIIIIIIIIIIIIIIIIIIIIIIIIIIIIIIIIIIIIIIIII
AAAAA11111IIIIIIIIIIIIIIIIIIIIIIIIIIIIIIIIIIIIIIIIIIIIIIIIIIIIII
AAAAAA11111IIIIIIIIIIIIIIIIIIIIIIIIIIIIIIIIIIIIIIIIIIIIIIIIIIIII
AAAAAAA11111IIIIIIIIIIIIIIIIIIIIIIIIIIIIIIIIIIIIIIIIIIIIIIIIIIII
AAAAAAAA11111IIIIIIIIIIIIIIIIIIIIIIIIIIIIIIIIIIIIIIIIIIIIIIIIIII
AAAAAAAAA11111IIIIIIIIIIIIIIIIIIIIIIIIIIIIIIIIIIIIIIIIIIIIIIIIII
AAAAAAAAAA11111IIIIIIIIIIIIIIIIIIIIIIIIIIIIIIIIIIIIIIIIIIIIIIIII
AAAAAAAAAAA11111IIIIIIIIIIIIIIIIIIIIIIIIIIIIIIIIIIIIIIIIIIIIIIII
AAAAAAAAAAAA11111IIIIIIIIIIIIIIIIIIIIIIIIIIIIIIIIIIIIIIIIIIIIIII
AAAAAAAAAAAAA11111IIIIIIIIIIIIIIIIIIIIIIIIIIIIIIIIIIIIIIIIIIIIII
AAAAAAAAAAAAAA11111IIIIIIIIIIIIIIIIIIIIIIIIIIIIIIIIIIIIIIIIIIIII
AAAAAAAAAAAAAAA11111IIIIIIIIIIIIIIIIIIIIIIIIIIIIIIIIIIIIIIIIIIII
AAAAAAAAAAAAAAAA11111IIIIIIIIIIIIIIIIIIIIIIIIIIIIIIIIIIIIIIIIIII
AAAAAAAAAAAAAAAAA11111IIIIIIIIIIIIIIIIIIIIIIIIIIIIIIIIIIIIIIIIII
AAAAAAAAAAAAAAAAAA11111IIIIIIIIIIIIIIIIIIIIIIIIIIIIIIIIIIIIIIIII
AAAAAAAAAAAAAAAAAAA11111IIIIIIIIIIIIIIIIIIIIIIIIIIIIIIIIIIIIIIII
AAAAAAAAAAAAAAAAAAAA11111IIIIIIIIIIIIIIIIIIIIIIIIIIIIIIIIIIIIIII
AAAAAAAAAAAAAAAAAAAAA11111IIIIIIIIIIIIIIIIIIIIIIIIIIIIIIIIIIIIII
AAAAAAAAAAAAAAAAAAAAAA11111IIIIIIIIIIIIIIIIIIIIIIIIIIIIIIIIIIIII
AAAAAAAAAAAAAAAAAAAAAAA11111IIIIIIIIIIIIIIIIIIIIIIIIIIIIIIIIIIII
AAAAAAAAAAAAAAAAAAAAAAAA11111IIIIIIIIIIIIIIIIIIIIIIIIIIIIIIIIIII
AAAAAAAAAAAAAAAAAAAAAAAAA11111IIIIIIIIIIIIIIIIIIIIIIIIIIIIIIIIII
AAAAAAAAAAAAAAAAAAAAAAAAAA11111IIIIIIIIIIIIIIIIIIIIIIIIIIIIIIIII
AAAAAAAAAAAAAAAAAAAAAAAAAAA11111IIIIIIIIIIIIIIIIIIIIIIIIIIIIIIII
AAAAAAAAAAAAAAAAAAAAAAAAAAAA11111IIIIIIIIIIIIIIIIIIIIIIIIIIIIIII
AAAAAAAAAAAAAAAAAAAAAAAAAAAAA11111IIIIIIIIIIIIIIIIIIIIIIIIIIIIII
AAAAAAAAAAAAAAAAAAAAAAAAAAAAAA11111IIIIIIIIIIIIIIIIIIIIIIIIIIIII
AAAAAAAAAAAAAAAAAAAAAAAAAAAAAAA11111IIIIIIIIIIIIIIIIIIIIIIIIIIII
AAAAAAAAAAAAAAAAAAAAAAAAAAAAAAAA11111IIIIIIIIIIIIIIIIIIIIIIIIIII
AAAAAAAAAAAAAAAAAAAAAAAAAAAAAAAAA11111IIIIIIIIIIIIIIIIIIIIIIIIII
AAAAAAAAAAAAAAAAAAAAAAAAAAAAAAAAAA11111IIIIIIIIIIIIIIIIIIIIIIIII
AAAAAAAAAAAAAAAAAAAAAAAAAAAAAAAAAAA11111IIIIIIIIIIIIIIIIIIIIIIII
AAAAAAAAAAAAAAAAAAAAAAAAAAAAAAAAAAAA11111IIIIIIIIIIIIIIIIIIIIIII
AAAAAAAAAAAAAAAAAAAAAAAAAAAAAAAAAAAAA11111IIIIIIIIIIIIIIIIIIIIII
AAAAAAAAAAAAAAAAAAAAAAAAAAAAAAAAAAAAAA11111IIIIIIIIIIIIIIIIIIIII
AAAAAAAAAAAAAAAAAAAAAAAAAAAAAAAAAAAAAAA11111IIIIIIIIIIIIIIIIIIII
AAAAAAAAAAAAAAAAAAAAAAAAAAAAAAAAAAAAAAAA11111IIIIIIIIIIIIIIIIIII
AAAAAAAAAAAAAAAAAAAAAAAAAAAAAAAAAAAAAAAAA11111IIIIIIIIIIIIIIIIII
AAAAAAAAAAAAAAAAAAAAAAAAAAAAAAAAAAAAAAAAAA11111IIIIIIIIIIIIIIIII
AAAAAAAAAAAAAAAAAAAAAAAAAAAAAAAAAAAAAAAAAAA11111IIIIIIIIIIIIIIII
AAAAAAAAAAAAAAAAAAAAAAAAAAAAAAAAAAAAAAAAAAAA11111IIIIIIIIIIIIIII
AAAAAAAAAAAAAAAAAAAAAAAAAAAAAAAAAAAAAAAAAAAAA11111IIIIIIIIIIIIII
AAAAAAAAAAAAAAAAAAAAAAAAAAAAAAAAAAAAAAAAAAAAAA11111IIIIIIIIIIIII
AAAAAAAAAAAAAAAAAAAAAAAAAAAAAAAAAAAAAAAAAAAAAAA11111IIIIIIIIIIII
AAAAAAAAAAAAAAAAAAAAAAAAAAAAAAAAAAAAAAAAAAAAAAAA11111IIIIIIIIIII
AAAAAAAAAAAAAAAAAAAAAAAAAAAAAAAAAAAAAAAAAAAAAAAAA11111IIIIIIIIII
AAAAAAAAAAAAAAAAAAAAAAAAAAAAAAAAAAAAAAAAAAAAAAAAAA11111IIIIIIIII
AAAAAAAAAAAAAAAAAAAAAAAAAAAAAAAAAAAAAAAAAAAAAAAAAAA11111IIIIIIII
AAAAAAAAAAAAAAAAAAAAAAAAAAAAAAAAAAAAAAAAAAAAAAAAAAAA11111IIIIIII
AAAAAAAAAAAAAAAAAAAAAAAAAAAAAAAAAAAAAAAAAAAAAAAAAAAAA11111IIIIII
AAAAAAAAAAAAAAAAAAAAAAAAAAAAAAAAAAAAAAAAAAAAAAAAAAAAAA11111IIIII
AAAAAAAAAAAAAAAAAAAAAAAAAAAAAAAAAAAAAAAAAAAAAAAAAAAAAAA11111IIII
AAAAAAAAAAAAAAAAAAAAAAAAAAAAAAAAAAAAAAAAAAAAAAAAAAAAAAAA11111III
AAAAAAAAAAAAAAAAAAAAAAAAAAAAAAAAAAAAAAAAAAAAAAAAAAAAAAAAA11111II
AAAAAAAAAAAAAAAAAAAAAAAAAAAAAAAAAAAAAAAAAAAAAAAAAAAAAAAAAA11111I
AAAAAAAAAAAAAAAAAAAAAAAAAAAAAAAAAAAAAAAAAAAAAAAAAAAAAAAAAAA11111
AAAAAAAAAAAAAAAAAAAAAAAAAAAAAAAAAAAAAAAAAAAAAAAAAAAAAAAAAAAA1111
AAAAAAAAAAAAAAAAAAAAAAAAAAAAAAAAAAAAAAAAAAAAAAAAAAAAAAAAAAAAA111
AAAAAAAAAAAAAAAAAAAAAAAAAAAAAAAAAAAAAAAAAAAAAAAAAAAAAAAAAAAAAA11
AAAAAAAAAAAAAAAAAAAAAAAAAAAAAAAAAAAAAAAAAAAAAAAAAAAAAAAAAAAAAAA1
AAAAAAAAAAAAAAAAAAAAAAAAAAAAAAAAAAAAAAAAAAAAAAAAAAAAAAAAAAAAAAAA
[MLOP] Prefetch Degree Mean: 8.00267
[MLOP] Prefetch Degree SD: 0.372868
[MLOP] Max Score Left Mean (%): 89.8184
[MLOP] Max Score Left SD (%): 1.39381
[MLOP] Max Score Right Mean (%): 99.6008
[MLOP] Max Score Right SD (%): 0.255526
LLC TOTAL     ACCESS:    4017111  HIT:    2214119  MISS:    1802992  HIT %:    55.1172  MISS %:    44.8828   MPKI: 9.00929
LLC LOAD      ACCESS:     532432  HIT:     499854  MISS:      32578  HIT %:    93.8813  MISS %:    6.11872   MPKI: 0.162788
LLC RFO       ACCESS:       1553  HIT:       1551  MISS:          2  HIT %:    99.8712  MISS %:   0.128783   MPKI: 9.99371e-06
LLC PREFETCH  ACCESS:    1723610  HIT:          0  MISS:    1723610  HIT %:          0  MISS %:        100   MPKI: 8.61263
LLC WRITEBACK ACCESS:    1755784  HIT:    1712528  MISS:      43256  HIT %:    97.5364  MISS %:    2.46363   MPKI: 0.216144

RAW hits: 3460
Loads Generated: 70213256
Loads sent to L1D: 70209796
Stores Generated: 14049920
Stores sent to L1D: 14049927

Region of Interest Statistics

CPU 0 cumulative IPC: 0.812874 instructions: 200000001 cycles: 246040559
ITLB TOTAL     ACCESS:   29371017  HIT:   29371017  MISS:          0  HIT %:        100  MISS %:          0   MPKI: 0
ITLB LOAD TRANSLATION ACCESS:   29371017  HIT:   29371017  MISS:          0  HIT %:        100  MISS %:          0   MPKI: 0
ITLB PREFETCH  REQUESTED:          0  ISSUED:          0  USEFUL:          0  USELESS:          0
ITLB USEFUL LOAD PREFETCHES:          0 PREFETCH ISSUED TO LOWER LEVEL:          0  ACCURACY: -nan
ITLB TIMELY PREFETCHES:          0 LATE PREFETCHES: 0 DROPPED PREFETCHES: 0
ITLB PREFETCHES SAME FILL-ORIGIN LEVEL: 0 DIFFERENT FILL-ORIGIN LEVEL: 0
ITLB AVERAGE MISS LATENCY: -nan cycles
ITLB RQ	ACCESS:   36364595	FORWARD:          0	MERGED:    6993578	TO_CACHE:   29371017

DTLB TOTAL     ACCESS:   25387609  HIT:   25340631  MISS:      46978  HIT %:     99.815  MISS %:   0.185043   MPKI: 0.23489
DTLB LOAD TRANSLATION ACCESS:   25387609  HIT:   25340631  MISS:      46978  HIT %:     99.815  MISS %:   0.185043   MPKI: 0.23489
DTLB PREFETCH  REQUESTED:          0  ISSUED:          0  USEFUL:          0  USELESS:          0
DTLB USEFUL LOAD PREFETCHES:          0 PREFETCH ISSUED TO LOWER LEVEL:          0  ACCURACY: -nan
DTLB TIMELY PREFETCHES:          0 LATE PREFETCHES: 0 DROPPED PREFETCHES: 0
DTLB PREFETCHES SAME FILL-ORIGIN LEVEL: 0 DIFFERENT FILL-ORIGIN LEVEL: 0
DTLB AVERAGE MISS LATENCY: 131.796 cycles
DTLB RQ	ACCESS:   40687523	FORWARD:          0	MERGED:   15296653	TO_CACHE:   25390870

STLB TOTAL     ACCESS:    1554527  HIT:    1527080  MISS:      27447  HIT %:    98.2344  MISS %:    1.76562   MPKI: 0.137235
STLB LOAD TRANSLATION ACCESS:      46978  HIT:      19532  MISS:      27446  HIT %:    41.5769  MISS %:    58.4231   MPKI: 0.13723
STLB TRANSLATION FROM L1D PREFETCHER ACCESS:    1507549  HIT:    1507548  MISS:          1  HIT %:    99.9999  MISS %: 6.63328e-05   MPKI: 5e-06
STLB PREFETCH  REQUESTED:          0  ISSUED:          0  USEFUL:          0  USELESS:          1
STLB USEFUL LOAD PREFETCHES:          0 PREFETCH ISSUED TO LOWER LEVEL:          0  ACCURACY: -nan
STLB TIMELY PREFETCHES:          0 LATE PREFETCHES: 0 DROPPED PREFETCHES: 0
STLB PREFETCHES SAME FILL-ORIGIN LEVEL: 0 DIFFERENT FILL-ORIGIN LEVEL: 0
STLB AVERAGE MISS LATENCY: 210.321 cycles
STLB RQ	ACCESS:    1772173	FORWARD:          0	MERGED:     217646	TO_CACHE:    1554527

STLB Hit, L1D data hit: 0
STLB Hit, L2C data hit: 0
STLB Hit, LLC data hit: 0
STLB Hit, LLC data miss: 0
STLB STLB hints to L2: 0
L1D TOTAL     ACCESS:   40732832  HIT:   38078535  MISS:    2654297  HIT %:    93.4836  MISS %:    6.51636   MPKI: 13.2715
L1D LOAD      ACCESS:   25335525  HIT:   24046186  MISS:    1289339  HIT %:    94.9109  MISS %:    5.08906   MPKI: 6.44669
L1D RFO       ACCESS:   14035410  HIT:   14032344  MISS:       3066  HIT %:    99.9782  MISS %:  0.0218447   MPKI: 0.01533
L1D PREFETCH  ACCESS:    1361897  HIT:          5  MISS:    1361892  HIT %: 0.000367135  MISS %:    99.9996   MPKI: 6.80946
L1D PREFETCH  REQUESTED:    3450390  ISSUED:    3450390  USEFUL:    1354344  USELESS:       7556
L1D USEFUL LOAD PREFETCHES:    1354344 PREFETCH ISSUED TO LOWER LEVEL:    1722542  ACCURACY: 78.6247
L1D TIMELY PREFETCHES:    1354344 LATE PREFETCHES: 360645 DROPPED PREFETCHES: 0
L1D PREFETCHES SAME FILL-ORIGIN LEVEL: 1722542 DIFFERENT FILL-ORIGIN LEVEL: 0
L1D AVERAGE MISS LATENCY: 338.948 cycles
L1D RQ	ACCESS:   70165649	FORWARD:          0	MERGED:   43519036	TO_CACHE:   26646427
L1D WQ	ACCESS:   14041096	FORWARD:        186	MERGED:          0	TO_CACHE:   14041096
L1D PQ	ACCESS:    1725195	FORWARD:          0	MERGED:          0	TO_CACHE:    1725195

L1D UNIQUE REGIONS ACCESSED: 0
L1D REGIONS CONFLICTS: 0
L1D Cross Page Prefetch Requests: 0
L1D Same Page Prefetch Requests: 2158460
L1D ROI Sum of L1D PQ occupancy: 19325899
L1D PREFETCHES PUSHED FROM L2C: 0
L1I TOTAL     ACCESS:   36364595  HIT:   36364595  MISS:          0  HIT %:        100  MISS %:          0   MPKI: 0
L1I LOAD      ACCESS:   36364595  HIT:   36364595  MISS:          0  HIT %:        100  MISS %:          0   MPKI: 0
L1I PREFETCH  REQUESTED:          0  ISSUED:          0  USEFUL:          0  USELESS:          0
L1I USEFUL LOAD PREFETCHES:          0 PREFETCH ISSUED TO LOWER LEVEL:          0  ACCURACY: -nan
L1I TIMELY PREFETCHES:          0 LATE PREFETCHES: 0 DROPPED PREFETCHES: 0
L1I PREFETCHES SAME FILL-ORIGIN LEVEL: 0 DIFFERENT FILL-ORIGIN LEVEL: 0
L1I AVERAGE MISS LATENCY: -nan cycles
L1I RQ	ACCESS:   46905800	FORWARD:          0	MERGED:   10541205	TO_CACHE:   36364595

BTB TOTAL     ACCESS:    3509178  HIT:    3509170  MISS:          8  HIT %:    99.9998  MISS %: 0.000227974   MPKI: 4e-05
BTB BRANCH_DIRECT_JUMP	ACCESS:        876  HIT:        874  MISS:          2
BTB BRANCH_INDIRECT	ACCESS:          0  HIT:          0  MISS:          0
BTB BRANCH_CONDITIONAL	ACCESS:    3506550  HIT:    3506548  MISS:          2
BTB BRANCH_DIRECT_CALL	ACCESS:        876  HIT:        874  MISS:          2
BTB BRANCH_INDIRECT_CALL	ACCESS:          0  HIT:          0  MISS:          0
BTB BRANCH_RETURN	ACCESS:        876  HIT:        874  MISS:          2
BTB BRANCH_OTHER ACCESS:          0  HIT:          0  MISS:          0

L2C TOTAL     ACCESS:    4438732  HIT:    1992096  MISS:    2446636  HIT %:    44.8798  MISS %:    55.1202   MPKI: 12.2332
L2C LOAD      ACCESS:     928694  HIT:     403628  MISS:     525066  HIT %:    43.4619  MISS %:    56.5381   MPKI: 2.62533
L2C DATA LOAD MPKI: 2.62533
L2C INSTRUCTION LOAD MPKI: 0
L2C RFO       ACCESS:       3066  HIT:       1846  MISS:       1220  HIT %:    60.2087  MISS %:    39.7913   MPKI: 0.0061
L2C PREFETCH  ACCESS:    1722537  HIT:          0  MISS:    1722537  HIT %:          0  MISS %:        100   MPKI: 8.61268
L2C DATA PREFETCH MPKI: 8.61268
L2C INSTRUCTION PREFETCH MPKI: 0
L2C WRITEBACK ACCESS:    1756979  HIT:    1562890  MISS:     194089  HIT %:    88.9533  MISS %:    11.0467   MPKI: 0.970445
L2C LOAD TRANSLATION ACCESS:      27453  HIT:      23732  MISS:       3721  HIT %:    86.4459  MISS %:    13.5541   MPKI: 0.018605
L2C TRANSLATION FROM L1D PREFETCHER ACCESS:          3  HIT:          0  MISS:          3  HIT %:          0  MISS %:        100   MPKI: 1.5e-05
L2C PREFETCH  REQUESTED:          0  ISSUED:          0  USEFUL:       5137  USELESS:    1716387
L2C USEFUL LOAD PREFETCHES:       5137 PREFETCH ISSUED TO LOWER LEVEL:    1722542  ACCURACY: 0.298222
L2C TIMELY PREFETCHES:       5137 LATE PREFETCHES: 0 DROPPED PREFETCHES: 0
L2C PREFETCHES SAME FILL-ORIGIN LEVEL: 0 DIFFERENT FILL-ORIGIN LEVEL: 0
L2C AVERAGE MISS LATENCY: 514.983 cycles
L2C RQ	ACCESS:     959216	FORWARD:          0	MERGED:          0	TO_CACHE:     959216
L2C WQ	ACCESS:    1756979	FORWARD:          0	MERGED:          0	TO_CACHE:    1756979
L2C PQ	ACCESS:    1722542	FORWARD:          0	MERGED:          0	TO_CACHE:    1722542

L2C Instructions Evicting Data 0
L2C Translations Evicting Data 3718
L2C Data Evicting Data 2245365
L2C Instructions Evicting Instructions 0
L2C Translations Evicting Instructions 0
L2C Data Evicting Instructions 0
L2C Instructions Evicting Translations 0
L2C Translations Evicting Translations 6
L2C Data Evicting Translations 3458
L2C Dense regions hint from L2: 0
PSCL5 TOTAL     ACCESS:      27447  HIT:      27447  MISS:          0  HIT %:        100  MISS %:          0   MPKI: 0
PSCL5 LOAD TRANSLATION ACCESS:      27446  HIT:      27446  MISS:          0  HIT %:        100  MISS %:          0   MPKI: 0
PSCL5 TRANSLATION FROM L1D PREFETCHER ACCESS:          1  HIT:          1  MISS:          0  HIT %:        100  MISS %:          0   MPKI: 0
PSCL5 PREFETCH  REQUESTED:          0  ISSUED:          0  USEFUL:          0  USELESS:          0
PSCL5 USEFUL LOAD PREFETCHES:          0 PREFETCH ISSUED TO LOWER LEVEL:          0  ACCURACY: -nan
PSCL5 TIMELY PREFETCHES:          0 LATE PREFETCHES: 0 DROPPED PREFETCHES: 0
PSCL5 PREFETCHES SAME FILL-ORIGIN LEVEL: 0 DIFFERENT FILL-ORIGIN LEVEL: 0

PSCL4 TOTAL     ACCESS:      27447  HIT:      27447  MISS:          0  HIT %:        100  MISS %:          0   MPKI: 0
PSCL4 LOAD TRANSLATION ACCESS:      27446  HIT:      27446  MISS:          0  HIT %:        100  MISS %:          0   MPKI: 0
PSCL4 TRANSLATION FROM L1D PREFETCHER ACCESS:          1  HIT:          1  MISS:          0  HIT %:        100  MISS %:          0   MPKI: 0
PSCL4 PREFETCH  REQUESTED:          0  ISSUED:          0  USEFUL:          0  USELESS:          0
PSCL4 USEFUL LOAD PREFETCHES:          0 PREFETCH ISSUED TO LOWER LEVEL:          0  ACCURACY: -nan
PSCL4 TIMELY PREFETCHES:          0 LATE PREFETCHES: 0 DROPPED PREFETCHES: 0
PSCL4 PREFETCHES SAME FILL-ORIGIN LEVEL: 0 DIFFERENT FILL-ORIGIN LEVEL: 0

PSCL3 TOTAL     ACCESS:      27384  HIT:      27379  MISS:          5  HIT %:    99.9817  MISS %:  0.0182588   MPKI: 2.5e-05
PSCL3 LOAD TRANSLATION ACCESS:      27384  HIT:      27379  MISS:          5  HIT %:    99.9817  MISS %:  0.0182588   MPKI: 2.5e-05
PSCL3 PREFETCH  REQUESTED:          0  ISSUED:          0  USEFUL:          0  USELESS:          0
PSCL3 USEFUL LOAD PREFETCHES:          0 PREFETCH ISSUED TO LOWER LEVEL:          0  ACCURACY: -nan
PSCL3 TIMELY PREFETCHES:          0 LATE PREFETCHES: 0 DROPPED PREFETCHES: 0
PSCL3 PREFETCHES SAME FILL-ORIGIN LEVEL: 0 DIFFERENT FILL-ORIGIN LEVEL: 0

PSCL2 TOTAL     ACCESS:      27447  HIT:      27353  MISS:         94  HIT %:    99.6575  MISS %:   0.342478   MPKI: 0.00047
PSCL2 LOAD TRANSLATION ACCESS:      27447  HIT:      27353  MISS:         94  HIT %:    99.6575  MISS %:   0.342478   MPKI: 0.00047
PSCL2 PREFETCH  REQUESTED:          0  ISSUED:          0  USEFUL:          0  USELESS:          0
PSCL2 USEFUL LOAD PREFETCHES:          0 PREFETCH ISSUED TO LOWER LEVEL:          0  ACCURACY: -nan
PSCL2 TIMELY PREFETCHES:          0 LATE PREFETCHES: 0 DROPPED PREFETCHES: 0
PSCL2 PREFETCHES SAME FILL-ORIGIN LEVEL: 0 DIFFERENT FILL-ORIGIN LEVEL: 0

LLC TOTAL     ACCESS:    4006744  HIT:    2204181  MISS:    1802563  HIT %:    55.0118  MISS %:    44.9882   MPKI: 9.01281
LLC LOAD      ACCESS:     525066  HIT:     492467  MISS:      32599  HIT %:    93.7914  MISS %:    6.20855   MPKI: 0.162995
LLC RFO       ACCESS:       1220  HIT:       1217  MISS:          3  HIT %:    99.7541  MISS %:   0.245902   MPKI: 1.5e-05
LLC PREFETCH  ACCESS:    1722537  HIT:          0  MISS:    1722537  HIT %:          0  MISS %:        100   MPKI: 8.61268
LLC WRITEBACK ACCESS:    1754197  HIT:    1710315  MISS:      43882  HIT %:    97.4985  MISS %:    2.50154   MPKI: 0.21941
LLC LOAD TRANSLATION ACCESS:       3721  HIT:        182  MISS:       3539  HIT %:    4.89116  MISS %:    95.1088   MPKI: 0.017695
LLC TRANSLATION FROM L1D PREFETCHER ACCESS:          3  HIT:          0  MISS:          3  HIT %:          0  MISS %:        100   MPKI: 1.5e-05
LLC PREFETCH  REQUESTED:          0  ISSUED:          0  USEFUL:       9516  USELESS:    6885649
LLC USEFUL LOAD PREFETCHES:       9516 PREFETCH ISSUED TO LOWER LEVEL:    6899253  ACCURACY: 0.137928
LLC TIMELY PREFETCHES:       9516 LATE PREFETCHES: 0 DROPPED PREFETCHES: 0
LLC PREFETCHES SAME FILL-ORIGIN LEVEL: 0 DIFFERENT FILL-ORIGIN LEVEL: 0
LLC AVERAGE MISS LATENCY: 2648.2 cycles
LLC RQ	ACCESS:    2113229	FORWARD:          0	MERGED:          0	TO_CACHE:    2113229
LLC WQ	ACCESS:    7026964	FORWARD:          0	MERGED:          0	TO_CACHE:    7026964
LLC PQ	ACCESS:    6899254	FORWARD:          0	MERGED:          0	TO_CACHE:    6899254

LLC Dense regions hint to LLC: 0

RAW hits: 3460
Loads Generated: 70169125
Loads sent to L1D: 70165649
Stores Generated: 14041090
Stores sent to L1D: 14041096
Major fault: 0 Minor fault: 34498
Allocated PAGES: 138137

CPU 1 cumulative IPC: 0.814865 instructions: 200000002 cycles: 245439483
ITLB TOTAL     ACCESS:   29358857  HIT:   29358857  MISS:          0  HIT %:        100  MISS %:          0   MPKI: 0
ITLB LOAD TRANSLATION ACCESS:   29358857  HIT:   29358857  MISS:          0  HIT %:        100  MISS %:          0   MPKI: 0
ITLB PREFETCH  REQUESTED:          0  ISSUED:          0  USEFUL:          0  USELESS:          0
ITLB USEFUL LOAD PREFETCHES:          0 PREFETCH ISSUED TO LOWER LEVEL:          0  ACCURACY: -nan
ITLB TIMELY PREFETCHES:          0 LATE PREFETCHES: 0 DROPPED PREFETCHES: 0
ITLB PREFETCHES SAME FILL-ORIGIN LEVEL: 0 DIFFERENT FILL-ORIGIN LEVEL: 0
ITLB AVERAGE MISS LATENCY: -nan cycles
ITLB RQ	ACCESS:   36441703	FORWARD:          0	MERGED:    7011401	TO_CACHE:   29430302

DTLB TOTAL     ACCESS:   25383436  HIT:   25336459  MISS:      46977  HIT %:    99.8149  MISS %:    0.18507   MPKI: 0.234885
DTLB LOAD TRANSLATION ACCESS:   25383436  HIT:   25336459  MISS:      46977  HIT %:    99.8149  MISS %:    0.18507   MPKI: 0.234885
DTLB PREFETCH  REQUESTED:          0  ISSUED:          0  USEFUL:          0  USELESS:          0
DTLB USEFUL LOAD PREFETCHES:          0 PREFETCH ISSUED TO LOWER LEVEL:          0  ACCURACY: -nan
DTLB TIMELY PREFETCHES:          0 LATE PREFETCHES: 0 DROPPED PREFETCHES: 0
DTLB PREFETCHES SAME FILL-ORIGIN LEVEL: 0 DIFFERENT FILL-ORIGIN LEVEL: 0
DTLB AVERAGE MISS LATENCY: 132.846 cycles
DTLB RQ	ACCESS:   40779992	FORWARD:          0	MERGED:   15331530	TO_CACHE:   25448462

STLB TOTAL     ACCESS:    1554411  HIT:    1526964  MISS:      27447  HIT %:    98.2343  MISS %:    1.76575   MPKI: 0.137235
STLB LOAD TRANSLATION ACCESS:      46977  HIT:      19531  MISS:      27446  HIT %:    41.5757  MISS %:    58.4243   MPKI: 0.13723
STLB TRANSLATION FROM L1D PREFETCHER ACCESS:    1507434  HIT:    1507433  MISS:          1  HIT %:    99.9999  MISS %: 6.63379e-05   MPKI: 5e-06
STLB PREFETCH  REQUESTED:          0  ISSUED:          0  USEFUL:          1  USELESS:          0
STLB USEFUL LOAD PREFETCHES:          1 PREFETCH ISSUED TO LOWER LEVEL:          0  ACCURACY: inf
STLB TIMELY PREFETCHES:          1 LATE PREFETCHES: 0 DROPPED PREFETCHES: 0
STLB PREFETCHES SAME FILL-ORIGIN LEVEL: 0 DIFFERENT FILL-ORIGIN LEVEL: 0
STLB AVERAGE MISS LATENCY: 212.022 cycles
STLB RQ	ACCESS:    1776434	FORWARD:          0	MERGED:     218240	TO_CACHE:    1558194

STLB Hit, L1D data hit: 0
STLB Hit, L2C data hit: 0
STLB Hit, LLC data hit: 0
STLB Hit, LLC data miss: 0
STLB STLB hints to L2: 0
L1D TOTAL     ACCESS:   40733773  HIT:   38079491  MISS:    2654282  HIT %:    93.4838  MISS %:    6.51617   MPKI: 13.2714
L1D LOAD      ACCESS:   25337710  HIT:   24047649  MISS:    1290061  HIT %:    94.9085  MISS %:    5.09147   MPKI: 6.4503
L1D RFO       ACCESS:   14034907  HIT:   14031841  MISS:       3066  HIT %:    99.9782  MISS %:  0.0218455   MPKI: 0.01533
L1D PREFETCH  ACCESS:    1361156  HIT:          1  MISS:    1361155  HIT %: 7.3467e-05  MISS %:    99.9999   MPKI: 6.80577
L1D PREFETCH  REQUESTED:    3458686  ISSUED:    3458686  USEFUL:    1356904  USELESS:       7553
L1D USEFUL LOAD PREFETCHES:    1356904 PREFETCH ISSUED TO LOWER LEVEL:    1726686  ACCURACY: 78.5843
L1D TIMELY PREFETCHES:    1356904 LATE PREFETCHES: 362231 DROPPED PREFETCHES: 0
L1D PREFETCHES SAME FILL-ORIGIN LEVEL: 1726686 DIFFERENT FILL-ORIGIN LEVEL: 0
L1D AVERAGE MISS LATENCY: 339.276 cycles
L1D RQ	ACCESS:   70335896	FORWARD:          0	MERGED:   43630865	TO_CACHE:   26704834
L1D WQ	ACCESS:   14075158	FORWARD:        197	MERGED:          0	TO_CACHE:   14075158
L1D PQ	ACCESS:    1729343	FORWARD:          0	MERGED:          0	TO_CACHE:    1729343

L1D UNIQUE REGIONS ACCESSED: 0
L1D REGIONS CONFLICTS: 0
L1D Cross Page Prefetch Requests: 0
L1D Same Page Prefetch Requests: 2162603
L1D ROI Sum of L1D PQ occupancy: 19359795
L1D PREFETCHES PUSHED FROM L2C: 0
L1I TOTAL     ACCESS:   36353302  HIT:   36353302  MISS:          0  HIT %:        100  MISS %:          0   MPKI: 0
L1I LOAD      ACCESS:   36353302  HIT:   36353302  MISS:          0  HIT %:        100  MISS %:          0   MPKI: 0
L1I PREFETCH  REQUESTED:          0  ISSUED:          0  USEFUL:          0  USELESS:          0
L1I USEFUL LOAD PREFETCHES:          0 PREFETCH ISSUED TO LOWER LEVEL:          0  ACCURACY: -nan
L1I TIMELY PREFETCHES:          0 LATE PREFETCHES: 0 DROPPED PREFETCHES: 0
L1I PREFETCHES SAME FILL-ORIGIN LEVEL: 0 DIFFERENT FILL-ORIGIN LEVEL: 0
L1I AVERAGE MISS LATENCY: -nan cycles
L1I RQ	ACCESS:   47003594	FORWARD:          0	MERGED:   10561891	TO_CACHE:   36441703

BTB TOTAL     ACCESS:    3509178  HIT:    3509170  MISS:          8  HIT %:    99.9998  MISS %: 0.000227974   MPKI: 4e-05
BTB BRANCH_DIRECT_JUMP	ACCESS:        876  HIT:        874  MISS:          2
BTB BRANCH_INDIRECT	ACCESS:          0  HIT:          0  MISS:          0
BTB BRANCH_CONDITIONAL	ACCESS:    3506550  HIT:    3506548  MISS:          2
BTB BRANCH_DIRECT_CALL	ACCESS:        876  HIT:        874  MISS:          2
BTB BRANCH_INDIRECT_CALL	ACCESS:          0  HIT:          0  MISS:          0
BTB BRANCH_RETURN	ACCESS:        876  HIT:        874  MISS:          2
BTB BRANCH_OTHER ACCESS:          0  HIT:          0  MISS:          0

L2C TOTAL     ACCESS:    4438719  HIT:    1997408  MISS:    2441311  HIT %:    44.9996  MISS %:    55.0004   MPKI: 12.2066
L2C LOAD      ACCESS:     928708  HIT:     410721  MISS:     517987  HIT %:     44.225  MISS %:     55.775   MPKI: 2.58993
L2C DATA LOAD MPKI: 2.58993
L2C INSTRUCTION LOAD MPKI: 0
L2C RFO       ACCESS:       3066  HIT:       1450  MISS:       1616  HIT %:    47.2929  MISS %:    52.7071   MPKI: 0.00808
L2C PREFETCH  ACCESS:    1722507  HIT:          0  MISS:    1722507  HIT %:          0  MISS %:        100   MPKI: 8.61253
L2C DATA PREFETCH MPKI: 8.61253
L2C INSTRUCTION PREFETCH MPKI: 0
L2C WRITEBACK ACCESS:    1756982  HIT:    1561534  MISS:     195448  HIT %:    88.8759  MISS %:    11.1241   MPKI: 0.97724
[...]
AAAAAAAAA11111IIIIIIIIIIIIIIIIIIIIIIIIIIIIIIIIIIIIIIIIIIIIIIIIII
AAAAAAAAAA11111IIIIIIIIIIIIIIIIIIIIIIIIIIIIIIIIIIIIIIIIIIIIIIIII
AAAAAAAAAAA11111IIIIIIIIIIIIIIIIIIIIIIIIIIIIIIIIIIIIIIIIIIIIIIII
AAAAAAAAAAAA11111IIIIIIIIIIIIIIIIIIIIIIIIIIIIIIIIIIIIIIIIIIIIIII
AAAAAAAAAAAAA11111IIIIIIIIIIIIIIIIIIIIIIIIIIIIIIIIIIIIIIIIIIIIII
AAAAAAAAAAAAAA11111IIIIIIIIIIIIIIIIIIIIIIIIIIIIIIIIIIIIIIIIIIIII
AAAAAAAAAAAAAAA11111IIIIIIIIIIIIIIIIIIIIIIIIIIIIIIIIIIIIIIIIIIII
AAAAAAAAAAAAAAAA11111IIIIIIIIIIIIIIIIIIIIIIIIIIIIIIIIIIIIIIIIIII
AAAAAAAAAAAAAAAAA11111IIIIIIIIIIIIIIIIIIIIIIIIIIIIIIIIIIIIIIIIII
AAAAAAAAAAAAAAAAAA11111IIIIIIIIIIIIIIIIIIIIIIIIIIIIIIIIIIIIIIIII
AAAAAAAAAAAAAAAAAAA11111IIIIIIIIIIIIIIIIIIIIIIIIIIIIIIIIIIIIIIII
AAAAAAAAAAAAAAAAAAAA11111IIIIIIIIIIIIIIIIIIIIIIIIIIIIIIIIIIIIIII
AAAAAAAAAAAAAAAAAAAAA11111IIIIIIIIIIIIIIIIIIIIIIIIIIIIIIIIIIIIII
AAAAAAAAAAAAAAAAAAAAAA11111IIIIIIIIIIIIIIIIIIIIIIIIIIIIIIIIIIIII
AAAAAAAAAAAAAAAAAAAAAAA11111IIIIIIIIIIIIIIIIIIIIIIIIIIIIIIIIIIII
AAAAAAAAAAAAAAAAAAAAAAAA11111IIIIIIIIIIIIIIIIIIIIIIIIIIIIIIIIIII
AAAAAAAAAAAAAAAAAAAAAAAAA11111IIIIIIIIIIIIIIIIIIIIIIIIIIIIIIIIII
AAAAAAAAAAAAAAAAAAAAAAAAAA11111IIIIIIIIIIIIIIIIIIIIIIIIIIIIIIIII
AAAAAAAAAAAAAAAAAAAAAAAAAAA11111IIIIIIIIIIIIIIIIIIIIIIIIIIIIIIII
AAAAAAAAAAAAAAAAAAAAAAAAAAAA11111IIIIIIIIIIIIIIIIIIIIIIIIIIIIIII
AAAAAAAAAAAAAAAAAAAAAAAAAAAAA11111IIIIIIIIIIIIIIIIIIIIIIIIIIIIII
AAAAAAAAAAAAAAAAAAAAAAAAAAAAAA11111IIIIIIIIIIIIIIIIIIIIIIIIIIIII
AAAAAAAAAAAAAAAAAAAAAAAAAAAAAAA11111IIIIIIIIIIIIIIIIIIIIIIIIIIII
AAAAAAAAAAAAAAAAAAAAAAAAAAAAAAAA11111IIIIIIIIIIIIIIIIIIIIIIIIIII
AAAAAAAAAAAAAAAAAAAAAAAAAAAAAAAAA11111IIIIIIIIIIIIIIIIIIIIIIIIII
AAAAAAAAAAAAAAAAAAAAAAAAAAAAAAAAAA11111IIIIIIIIIIIIIIIIIIIIIIIII
AAAAAAAAAAAAAAAAAAAAAAAAAAAAAAAAAAA11111IIIIIIIIIIIIIIIIIIIIIIII
AAAAAAAAAAAAAAAAAAAAAAAAAAAAAAAAAAAA11111IIIIIIIIIIIIIIIIIIIIIII
AAAAAAAAAAAAAAAAAAAAAAAAAAAAAAAAAAAAA11111IIIIIIIIIIIIIIIIIIIIII
AAAAAAAAAAAAAAAAAAAAAAAAAAAAAAAAAAAAAA11111IIIIIIIIIIIIIIIIIIIII
AAAAAAAAAAAAAAAAAAAAAAAAAAAAAAAAAAAAAAA11111IIIIIIIIIIIIIIIIIIII
AAAAAAAAAAAAAAAAAAAAAAAAAAAAAAAAAAAAAAAA11111IIIIIIIIIIIIIIIIIII
AAAAAAAAAAAAAAAAAAAAAAAAAAAAAAAAAAAAAAAAA11111IIIIIIIIIIIIIIIIII
AAAAAAAAAAAAAAAAAAAAAAAAAAAAAAAAAAAAAAAAAA11111IIIIIIIIIIIIIIIII
AAAAAAAAAAAAAAAAAAAAAAAAAAAAAAAAAAAAAAAAAAA11111IIIIIIIIIIIIIIII
AAAAAAAAAAAAAAAAAAAAAAAAAAAAAAAAAAAAAAAAAAAA11111IIIIIIIIIIIIIII
AAAAAAAAAAAAAAAAAAAAAAAAAAAAAAAAAAAAAAAAAAAAA11111IIIIIIIIIIIIII
AAAAAAAAAAAAAAAAAAAAAAAAAAAAAAAAAAAAAAAAAAAAAA11111IIIIIIIIIIIII
AAAAAAAAAAAAAAAAAAAAAAAAAAAAAAAAAAAAAAAAAAAAAAA11111IIIIIIIIIIII
AAAAAAAAAAAAAAAAAAAAAAAAAAAAAAAAAAAAAAAAAAAAAAAA11111IIIIIIIIIII
AAAAAAAAAAAAAAAAAAAAAAAAAAAAAAAAAAAAAAAAAAAAAAAAA11111IIIIIIIIII
AAAAAAAAAAAAAAAAAAAAAAAAAAAAAAAAAAAAAAAAAAAAAAAAAA11111IIIIIIIII
AAAAAAAAAAAAAAAAAAAAAAAAAAAAAAAAAAAAAAAAAAAAAAAAAAA11111IIIIIIII
AAAAAAAAAAAAAAAAAAAAAAAAAAAAAAAAAAAAAAAAAAAAAAAAAAAA11111IIIIIII
AAAAAAAAAAAAAAAAAAAAAAAAAAAAAAAAAAAAAAAAAAAAAAAAAAAAA11111IIIIII
AAAAAAAAAAAAAAAAAAAAAAAAAAAAAAAAAAAAAAAAAAAAAAAAAAAAAA11111IIIII
AAAAAAAAAAAAAAAAAAAAAAAAAAAAAAAAAAAAAAAAAAAAAAAAAAAAAAA11111IIII
AAAAAAAAAAAAAAAAAAAAAAAAAAAAAAAAAAAAAAAAAAAAAAAAAAAAAAAA11111III
AAAAAAAAAAAAAAAAAAAAAAAAAAAAAAAAAAAAAAAAAAAAAAAAAAAAAAAAA11111II
AAAAAAAAAAAAAAAAAAAAAAAAAAAAAAAAAAAAAAAAAAAAAAAAAAAAAAAAAA11111I
AAAAAAAAAAAAAAAAAAAAAAAAAAAAAAAAAAAAAAAAAAAAAAAAAAAAAAAAAAA11111
AAAAAAAAAAAAAAAAAAAAAAAAAAAAAAAAAAAAAAAAAAAAAAAAAAAAAAAAAAAA1111
AAAAAAAAAAAAAAAAAAAAAAAAAAAAAAAAAAAAAAAAAAAAAAAAAAAAAAAAAAAAA111
AAAAAAAAAAAAAAAAAAAAAAAAAAAAAAAAAAAAAAAAAAAAAAAAAAAAAAAAAAAAAA11
AAAAAAAAAAAAAAAAAAAAAAAAAAAAAAAAAAAAAAAAAAAAAAAAAAAAAAAAAAAAAAA1
AAAAAAAAAAAAAAAAAAAAAAAAAAAAAAAAAAAAAAAAAAAAAAAAAAAAAAAAAAAAAAAA
[MLOP] Prefetch Degree Mean: 8.00803
[MLOP] Prefetch Degree SD: 0.358399
[MLOP] Max Score Left Mean (%): 89.77
[MLOP] Max Score Left SD (%): 1.33989
[MLOP] Max Score Right Mean (%): 99.6048
[MLOP] Max Score Right SD (%): 0.257011
=== CPU 1 L1D Prefetcher Statistics ===
[MLOP] History of tracked zone:
IIIIIIIIIIIIIIIIIIIIIIIIIIIIIIIIIIIIIIIIIIIIIIIIIIIIIIIIIIIIIIII
A11111IIIIIIIIIIIIIIIIIIIIIIIIIIIIIIIIIIIIIIIIIIIIIIIIIIIIIIIIII
AA11111IIIIIIIIIIIIIIIIIIIIIIIIIIIIIIIIIIIIIIIIIIIIIIIIIIIIIIIII
AAA11111IIIIIIIIIIIIIIIIIIIIIIIIIIIIIIIIIIIIIIIIIIIIIIIIIIIIIIII
AAAA11111IIIIIIIIIIIIIIIIIIIIIIIIIIIIIIIIIIIIIIIIIIIIIIIIIIIIIII
AAAAA11111IIIIIIIIIIIIIIIIIIIIIIIIIIIIIIIIIIIIIIIIIIIIIIIIIIIIII
AAAAAA11111IIIIIIIIIIIIIIIIIIIIIIIIIIIIIIIIIIIIIIIIIIIIIIIIIIIII
AAAAAAA11111IIIIIIIIIIIIIIIIIIIIIIIIIIIIIIIIIIIIIIIIIIIIIIIIIIII
AAAAAAAA11111IIIIIIIIIIIIIIIIIIIIIIIIIIIIIIIIIIIIIIIIIIIIIIIIIII
AAAAAAAAA11111IIIIIIIIIIIIIIIIIIIIIIIIIIIIIIIIIIIIIIIIIIIIIIIIII
AAAAAAAAAA11111IIIIIIIIIIIIIIIIIIIIIIIIIIIIIIIIIIIIIIIIIIIIIIIII
AAAAAAAAAAA11111IIIIIIIIIIIIIIIIIIIIIIIIIIIIIIIIIIIIIIIIIIIIIIII
AAAAAAAAAAAA11111IIIIIIIIIIIIIIIIIIIIIIIIIIIIIIIIIIIIIIIIIIIIIII
AAAAAAAAAAAAA11111IIIIIIIIIIIIIIIIIIIIIIIIIIIIIIIIIIIIIIIIIIIIII
AAAAAAAAAAAAAA11111IIIIIIIIIIIIIIIIIIIIIIIIIIIIIIIIIIIIIIIIIIIII
AAAAAAAAAAAAAAA11111IIIIIIIIIIIIIIIIIIIIIIIIIIIIIIIIIIIIIIIIIIII
AAAAAAAAAAAAAAAA11111IIIIIIIIIIIIIIIIIIIIIIIIIIIIIIIIIIIIIIIIIII
AAAAAAAAAAAAAAAAA11111IIIIIIIIIIIIIIIIIIIIIIIIIIIIIIIIIIIIIIIIII
AAAAAAAAAAAAAAAAAA11111IIIIIIIIIIIIIIIIIIIIIIIIIIIIIIIIIIIIIIIII
AAAAAAAAAAAAAAAAAAA11111IIIIIIIIIIIIIIIIIIIIIIIIIIIIIIIIIIIIIIII
AAAAAAAAAAAAAAAAAAAA11111IIIIIIIIIIIIIIIIIIIIIIIIIIIIIIIIIIIIIII
AAAAAAAAAAAAAAAAAAAAA11111IIIIIIIIIIIIIIIIIIIIIIIIIIIIIIIIIIIIII
AAAAAAAAAAAAAAAAAAAAAA11111IIIIIIIIIIIIIIIIIIIIIIIIIIIIIIIIIIIII
AAAAAAAAAAAAAAAAAAAAAAA11111IIIIIIIIIIIIIIIIIIIIIIIIIIIIIIIIIIII
AAAAAAAAAAAAAAAAAAAAAAAA11111IIIIIIIIIIIIIIIIIIIIIIIIIIIIIIIIIII
AAAAAAAAAAAAAAAAAAAAAAAAA11111IIIIIIIIIIIIIIIIIIIIIIIIIIIIIIIIII
AAAAAAAAAAAAAAAAAAAAAAAAAA11111IIIIIIIIIIIIIIIIIIIIIIIIIIIIIIIII
AAAAAAAAAAAAAAAAAAAAAAAAAAA11111IIIIIIIIIIIIIIIIIIIIIIIIIIIIIIII
AAAAAAAAAAAAAAAAAAAAAAAAAAAA11111IIIIIIIIIIIIIIIIIIIIIIIIIIIIIII
AAAAAAAAAAAAAAAAAAAAAAAAAAAAA11111IIIIIIIIIIIIIIIIIIIIIIIIIIIIII
AAAAAAAAAAAAAAAAAAAAAAAAAAAAAA11111IIIIIIIIIIIIIIIIIIIIIIIIIIIII
AAAAAAAAAAAAAAAAAAAAAAAAAAAAAAA11111IIIIIIIIIIIIIIIIIIIIIIIIIIII
AAAAAAAAAAAAAAAAAAAAAAAAAAAAAAAA11111IIIIIIIIIIIIIIIIIIIIIIIIIII
AAAAAAAAAAAAAAAAAAAAAAAAAAAAAAAAA11111IIIIIIIIIIIIIIIIIIIIIIIIII
AAAAAAAAAAAAAAAAAAAAAAAAAAAAAAAAAA11111IIIIIIIIIIIIIIIIIIIIIIIII
AAAAAAAAAAAAAAAAAAAAAAAAAAAAAAAAAAA11111IIIIIIIIIIIIIIIIIIIIIIII
AAAAAAAAAAAAAAAAAAAAAAAAAAAAAAAAAAAA11111IIIIIIIIIIIIIIIIIIIIIII
AAAAAAAAAAAAAAAAAAAAAAAAAAAAAAAAAAAAA11111IIIIIIIIIIIIIIIIIIIIII
AAAAAAAAAAAAAAAAAAAAAAAAAAAAAAAAAAAAAA11111IIIIIIIIIIIIIIIIIIIII
AAAAAAAAAAAAAAAAAAAAAAAAAAAAAAAAAAAAAAA11111IIIIIIIIIIIIIIIIIIII
AAAAAAAAAAAAAAAAAAAAAAAAAAAAAAAAAAAAAAAA11111IIIIIIIIIIIIIIIIIII
AAAAAAAAAAAAAAAAAAAAAAAAAAAAAAAAAAAAAAAAA11111IIIIIIIIIIIIIIIIII
AAAAAAAAAAAAAAAAAAAAAAAAAAAAAAAAAAAAAAAAAA11111IIIIIIIIIIIIIIIII
AAAAAAAAAAAAAAAAAAAAAAAAAAAAAAAAAAAAAAAAAAA11111IIIIIIIIIIIIIIII
AAAAAAAAAAAAAAAAAAAAAAAAAAAAAAAAAAAAAAAAAAAA11111IIIIIIIIIIIIIII
AAAAAAAAAAAAAAAAAAAAAAAAAAAAAAAAAAAAAAAAAAAAA11111IIIIIIIIIIIIII
AAAAAAAAAAAAAAAAAAAAAAAAAAAAAAAAAAAAAAAAAAAAAA11111IIIIIIIIIIIII
AAAAAAAAAAAAAAAAAAAAAAAAAAAAAAAAAAAAAAAAAAAAAAA11111IIIIIIIIIIII
AAAAAAAAAAAAAAAAAAAAAAAAAAAAAAAAAAAAAAAAAAAAAAAA11111IIIIIIIIIII
AAAAAAAAAAAAAAAAAAAAAAAAAAAAAAAAAAAAAAAAAAAAAAAAA11111IIIIIIIIII
AAAAAAAAAAAAAAAAAAAAAAAAAAAAAAAAAAAAAAAAAAAAAAAAAA11111IIIIIIIII
AAAAAAAAAAAAAAAAAAAAAAAAAAAAAAAAAAAAAAAAAAAAAAAAAAA11111IIIIIIII
AAAAAAAAAAAAAAAAAAAAAAAAAAAAAAAAAAAAAAAAAAAAAAAAAAAA11111IIIIIII
AAAAAAAAAAAAAAAAAAAAAAAAAAAAAAAAAAAAAAAAAAAAAAAAAAAAA11111IIIIII
AAAAAAAAAAAAAAAAAAAAAAAAAAAAAAAAAAAAAAAAAAAAAAAAAAAAAA11111IIIII
AAAAAAAAAAAAAAAAAAAAAAAAAAAAAAAAAAAAAAAAAAAAAAAAAAAAAAA11111IIII
AAAAAAAAAAAAAAAAAAAAAAAAAAAAAAAAAAAAAAAAAAAAAAAAAAAAAAAA11111III
AAAAAAAAAAAAAAAAAAAAAAAAAAAAAAAAAAAAAAAAAAAAAAAAAAAAAAAAA11111II
AAAAAAAAAAAAAAAAAAAAAAAAAAAAAAAAAAAAAAAAAAAAAAAAAAAAAAAAAA11111I
AAAAAAAAAAAAAAAAAAAAAAAAAAAAAAAAAAAAAAAAAAAAAAAAAAAAAAAAAAA11111
AAAAAAAAAAAAAAAAAAAAAAAAAAAAAAAAAAAAAAAAAAAAAAAAAAAAAAAAAAAA1111
AAAAAAAAAAAAAAAAAAAAAAAAAAAAAAAAAAAAAAAAAAAAAAAAAAAAAAAAAAAAA111
AAAAAAAAAAAAAAAAAAAAAAAAAAAAAAAAAAAAAAAAAAAAAAAAAAAAAAAAAAAAAA11
AAAAAAAAAAAAAAAAAAAAAAAAAAAAAAAAAAAAAAAAAAAAAAAAAAAAAAAAAAAAAAA1
AAAAAAAAAAAAAAAAAAAAAAAAAAAAAAAAAAAAAAAAAAAAAAAAAAAAAAAAAAAAAAAA
[MLOP] Prefetch Degree Mean: 7.99867
[MLOP] Prefetch Degree SD: 0.37771
[MLOP] Max Score Left Mean (%): 89.8285
[MLOP] Max Score Left SD (%): 1.33538
[MLOP] Max Score Right Mean (%): 99.5997
[MLOP] Max Score Right SD (%): 0.261789
=== CPU 2 L1D Prefetcher Statistics ===
[MLOP] History of tracked zone:
IIIIIIIIIIIIIIIIIIIIIIIIIIIIIIIIIIIIIIIIIIIIIIIIIIIIIIIIIIIIIIII
A11111IIIIIIIIIIIIIIIIIIIIIIIIIIIIIIIIIIIIIIIIIIIIIIIIIIIIIIIIII
AA11111IIIIIIIIIIIIIIIIIIIIIIIIIIIIIIIIIIIIIIIIIIIIIIIIIIIIIIIII
AAA11111IIIIIIIIIIIIIIIIIIIIIIIIIIIIIIIIIIIIIIIIIIIIIIIIIIIIIIII
AAAA11111IIIIIIIIIIIIIIIIIIIIIIIIIIIIIIIIIIIIIIIIIIIIIIIIIIIIIII
AAAAA11111IIIIIIIIIIIIIIIIIIIIIIIIIIIIIIIIIIIIIIIIIIIIIIIIIIIIII
AAAAAA11111IIIIIIIIIIIIIIIIIIIIIIIIIIIIIIIIIIIIIIIIIIIIIIIIIIIII
AAAAAAA11111IIIIIIIIIIIIIIIIIIIIIIIIIIIIIIIIIIIIIIIIIIIIIIIIIIII
AAAAAAAA11111IIIIIIIIIIIIIIIIIIIIIIIIIIIIIIIIIIIIIIIIIIIIIIIIIII
AAAAAAAAA11111IIIIIIIIIIIIIIIIIIIIIIIIIIIIIIIIIIIIIIIIIIIIIIIIII
AAAAAAAAAA11111IIIIIIIIIIIIIIIIIIIIIIIIIIIIIIIIIIIIIIIIIIIIIIIII
AAAAAAAAAAA11111IIIIIIIIIIIIIIIIIIIIIIIIIIIIIIIIIIIIIIIIIIIIIIII
AAAAAAAAAAAA11111IIIIIIIIIIIIIIIIIIIIIIIIIIIIIIIIIIIIIIIIIIIIIII
AAAAAAAAAAAAA11111IIIIIIIIIIIIIIIIIIIIIIIIIIIIIIIIIIIIIIIIIIIIII
AAAAAAAAAAAAAA11111IIIIIIIIIIIIIIIIIIIIIIIIIIIIIIIIIIIIIIIIIIIII
AAAAAAAAAAAAAAA11111IIIIIIIIIIIIIIIIIIIIIIIIIIIIIIIIIIIIIIIIIIII
AAAAAAAAAAAAAAAA11111IIIIIIIIIIIIIIIIIIIIIIIIIIIIIIIIIIIIIIIIIII
AAAAAAAAAAAAAAAAA11111IIIIIIIIIIIIIIIIIIIIIIIIIIIIIIIIIIIIIIIIII
AAAAAAAAAAAAAAAAAA11111IIIIIIIIIIIIIIIIIIIIIIIIIIIIIIIIIIIIIIIII
AAAAAAAAAAAAAAAAAAA11111IIIIIIIIIIIIIIIIIIIIIIIIIIIIIIIIIIIIIIII
AAAAAAAAAAAAAAAAAAAA11111IIIIIIIIIIIIIIIIIIIIIIIIIIIIIIIIIIIIIII
AAAAAAAAAAAAAAAAAAAAA11111IIIIIIIIIIIIIIIIIIIIIIIIIIIIIIIIIIIIII
AAAAAAAAAAAAAAAAAAAAAA11111IIIIIIIIIIIIIIIIIIIIIIIIIIIIIIIIIIIII
AAAAAAAAAAAAAAAAAAAAAAA11111IIIIIIIIIIIIIIIIIIIIIIIIIIIIIIIIIIII
AAAAAAAAAAAAAAAAAAAAAAAA11111IIIIIIIIIIIIIIIIIIIIIIIIIIIIIIIIIII
AAAAAAAAAAAAAAAAAAAAAAAAA11111IIIIIIIIIIIIIIIIIIIIIIIIIIIIIIIIII
AAAAAAAAAAAAAAAAAAAAAAAAAA11111IIIIIIIIIIIIIIIIIIIIIIIIIIIIIIIII
AAAAAAAAAAAAAAAAAAAAAAAAAAA11111IIIIIIIIIIIIIIIIIIIIIIIIIIIIIIII
AAAAAAAAAAAAAAAAAAAAAAAAAAAA11111IIIIIIIIIIIIIIIIIIIIIIIIIIIIIII
AAAAAAAAAAAAAAAAAAAAAAAAAAAAA11111IIIIIIIIIIIIIIIIIIIIIIIIIIIIII
AAAAAAAAAAAAAAAAAAAAAAAAAAAAAA11111IIIIIIIIIIIIIIIIIIIIIIIIIIIII
AAAAAAAAAAAAAAAAAAAAAAAAAAAAAAA11111IIIIIIIIIIIIIIIIIIIIIIIIIIII
AAAAAAAAAAAAAAAAAAAAAAAAAAAAAAAA11111IIIIIIIIIIIIIIIIIIIIIIIIIII
AAAAAAAAAAAAAAAAAAAAAAAAAAAAAAAAA11111IIIIIIIIIIIIIIIIIIIIIIIIII
AAAAAAAAAAAAAAAAAAAAAAAAAAAAAAAAAA11111IIIIIIIIIIIIIIIIIIIIIIIII
AAAAAAAAAAAAAAAAAAAAAAAAAAAAAAAAAAA11111IIIIIIIIIIIIIIIIIIIIIIII
AAAAAAAAAAAAAAAAAAAAAAAAAAAAAAAAAAAA11111IIIIIIIIIIIIIIIIIIIIIII
AAAAAAAAAAAAAAAAAAAAAAAAAAAAAAAAAAAAA11111IIIIIIIIIIIIIIIIIIIIII
AAAAAAAAAAAAAAAAAAAAAAAAAAAAAAAAAAAAAA11111IIIIIIIIIIIIIIIIIIIII
AAAAAAAAAAAAAAAAAAAAAAAAAAAAAAAAAAAAAAA11111IIIIIIIIIIIIIIIIIIII
AAAAAAAAAAAAAAAAAAAAAAAAAAAAAAAAAAAAAAAA11111IIIIIIIIIIIIIIIIIII
AAAAAAAAAAAAAAAAAAAAAAAAAAAAAAAAAAAAAAAAA11111IIIIIIIIIIIIIIIIII
AAAAAAAAAAAAAAAAAAAAAAAAAAAAAAAAAAAAAAAAAA11111IIIIIIIIIIIIIIIII
AAAAAAAAAAAAAAAAAAAAAAAAAAAAAAAAAAAAAAAAAAA11111IIIIIIIIIIIIIIII
AAAAAAAAAAAAAAAAAAAAAAAAAAAAAAAAAAAAAAAAAAAA11111IIIIIIIIIIIIIII
AAAAAAAAAAAAAAAAAAAAAAAAAAAAAAAAAAAAAAAAAAAAA11111IIIIIIIIIIIIII
AAAAAAAAAAAAAAAAAAAAAAAAAAAAAAAAAAAAAAAAAAAAAA11111IIIIIIIIIIIII
AAAAAAAAAAAAAAAAAAAAAAAAAAAAAAAAAAAAAAAAAAAAAAA11111IIIIIIIIIIII
AAAAAAAAAAAAAAAAAAAAAAAAAAAAAAAAAAAAAAAAAAAAAAAA11111IIIIIIIIIII
AAAAAAAAAAAAAAAAAAAAAAAAAAAAAAAAAAAAAAAAAAAAAAAAA11111IIIIIIIIII
AAAAAAAAAAAAAAAAAAAAAAAAAAAAAAAAAAAAAAAAAAAAAAAAAA11111IIIIIIIII
AAAAAAAAAAAAAAAAAAAAAAAAAAAAAAAAAAAAAAAAAAAAAAAAAAA11111IIIIIIII
AAAAAAAAAAAAAAAAAAAAAAAAAAAAAAAAAAAAAAAAAAAAAAAAAAAA11111IIIIIII
AAAAAAAAAAAAAAAAAAAAAAAAAAAAAAAAAAAAAAAAAAAAAAAAAAAAA11111IIIIII
AAAAAAAAAAAAAAAAAAAAAAAAAAAAAAAAAAAAAAAAAAAAAAAAAAAAAA11111IIIII
AAAAAAAAAAAAAAAAAAAAAAAAAAAAAAAAAAAAAAAAAAAAAAAAAAAAAAA11111IIII
AAAAAAAAAAAAAAAAAAAAAAAAAAAAAAAAAAAAAAAAAAAAAAAAAAAAAAAA11111III
AAAAAAAAAAAAAAAAAAAAAAAAAAAAAAAAAAAAAAAAAAAAAAAAAAAAAAAAA11111II
AAAAAAAAAAAAAAAAAAAAAAAAAAAAAAAAAAAAAAAAAAAAAAAAAAAAAAAAAA11111I
AAAAAAAAAAAAAAAAAAAAAAAAAAAAAAAAAAAAAAAAAAAAAAAAAAAAAAAAAAA11111
AAAAAAAAAAAAAAAAAAAAAAAAAAAAAAAAAAAAAAAAAAAAAAAAAAAAAAAAAAAA1111
AAAAAAAAAAAAAAAAAAAAAAAAAAAAAAAAAAAAAAAAAAAAAAAAAAAAAAAAAAAAA111
AAAAAAAAAAAAAAAAAAAAAAAAAAAAAAAAAAAAAAAAAAAAAAAAAAAAAAAAAAAAAA11
AAAAAAAAAAAAAAAAAAAAAAAAAAAAAAAAAAAAAAAAAAAAAAAAAAAAAAAAAAAAAAA1
AAAAAAAAAAAAAAAAAAAAAAAAAAAAAAAAAAAAAAAAAAAAAAAAAAAAAAAAAAAAAAAA
[MLOP] Prefetch Degree Mean: 7.99867
[MLOP] Prefetch Degree SD: 0.377459
[MLOP] Max Score Left Mean (%): 89.768
[MLOP] Max Score Left SD (%): 1.38262
[MLOP] Max Score Right Mean (%): 99.6043
[MLOP] Max Score Right SD (%): 0.259022
=== CPU 3 L1D Prefetcher Statistics ===
[MLOP] History of tracked zone:
IIIIIIIIIIIIIIIIIIIIIIIIIIIIIIIIIIIIIIIIIIIIIIIIIIIIIIIIIIIIIIII
A11111IIIIIIIIIIIIIIIIIIIIIIIIIIIIIIIIIIIIIIIIIIIIIIIIIIIIIIIIII
AA11111IIIIIIIIIIIIIIIIIIIIIIIIIIIIIIIIIIIIIIIIIIIIIIIIIIIIIIIII
AAA11111IIIIIIIIIIIIIIIIIIIIIIIIIIIIIIIIIIIIIIIIIIIIIIIIIIIIIIII
AAAA11111IIIIIIIIIIIIIIIIIIIIIIIIIIIIIIIIIIIIIIIIIIIIIIIIIIIIIII
AAAAA11111IIIIIIIIIIIIIIIIIIIIIIIIIIIIIIIIIIIIIIIIIIIIIIIIIIIIII
AAAAAA11111IIIIIIIIIIIIIIIIIIIIIIIIIIIIIIIIIIIIIIIIIIIIIIIIIIIII
AAAAAAA11111IIIIIIIIIIIIIIIIIIIIIIIIIIIIIIIIIIIIIIIIIIIIIIIIIIII
AAAAAAAA11111IIIIIIIIIIIIIIIIIIIIIIIIIIIIIIIIIIIIIIIIIIIIIIIIIII
AAAAAAAAA11111IIIIIIIIIIIIIIIIIIIIIIIIIIIIIIIIIIIIIIIIIIIIIIIIII
AAAAAAAAAA11111IIIIIIIIIIIIIIIIIIIIIIIIIIIIIIIIIIIIIIIIIIIIIIIII
AAAAAAAAAAA11111IIIIIIIIIIIIIIIIIIIIIIIIIIIIIIIIIIIIIIIIIIIIIIII
AAAAAAAAAAAA11111IIIIIIIIIIIIIIIIIIIIIIIIIIIIIIIIIIIIIIIIIIIIIII
AAAAAAAAAAAAA11111IIIIIIIIIIIIIIIIIIIIIIIIIIIIIIIIIIIIIIIIIIIIII
AAAAAAAAAAAAAA11111IIIIIIIIIIIIIIIIIIIIIIIIIIIIIIIIIIIIIIIIIIIII
AAAAAAAAAAAAAAA11111IIIIIIIIIIIIIIIIIIIIIIIIIIIIIIIIIIIIIIIIIIII
AAAAAAAAAAAAAAAA11111IIIIIIIIIIIIIIIIIIIIIIIIIIIIIIIIIIIIIIIIIII
AAAAAAAAAAAAAAAAA11111IIIIIIIIIIIIIIIIIIIIIIIIIIIIIIIIIIIIIIIIII
AAAAAAAAAAAAAAAAAA11111IIIIIIIIIIIIIIIIIIIIIIIIIIIIIIIIIIIIIIIII
AAAAAAAAAAAAAAAAAAA11111IIIIIIIIIIIIIIIIIIIIIIIIIIIIIIIIIIIIIIII
AAAAAAAAAAAAAAAAAAAA11111IIIIIIIIIIIIIIIIIIIIIIIIIIIIIIIIIIIIIII
AAAAAAAAAAAAAAAAAAAAA11111IIIIIIIIIIIIIIIIIIIIIIIIIIIIIIIIIIIIII
AAAAAAAAAAAAAAAAAAAAAA11111IIIIIIIIIIIIIIIIIIIIIIIIIIIIIIIIIIIII
AAAAAAAAAAAAAAAAAAAAAAA11111IIIIIIIIIIIIIIIIIIIIIIIIIIIIIIIIIIII
AAAAAAAAAAAAAAAAAAAAAAAA11111IIIIIIIIIIIIIIIIIIIIIIIIIIIIIIIIIII
AAAAAAAAAAAAAAAAAAAAAAAAA11111IIIIIIIIIIIIIIIIIIIIIIIIIIIIIIIIII
AAAAAAAAAAAAAAAAAAAAAAAAAA11111IIIIIIIIIIIIIIIIIIIIIIIIIIIIIIIII
AAAAAAAAAAAAAAAAAAAAAAAAAAA11111IIIIIIIIIIIIIIIIIIIIIIIIIIIIIIII
AAAAAAAAAAAAAAAAAAAAAAAAAAAA11111IIIIIIIIIIIIIIIIIIIIIIIIIIIIIII
AAAAAAAAAAAAAAAAAAAAAAAAAAAAA11111IIIIIIIIIIIIIIIIIIIIIIIIIIIIII
AAAAAAAAAAAAAAAAAAAAAAAAAAAAAA11111IIIIIIIIIIIIIIIIIIIIIIIIIIIII
AAAAAAAAAAAAAAAAAAAAAAAAAAAAAAA11111IIIIIIIIIIIIIIIIIIIIIIIIIIII
AAAAAAAAAAAAAAAAAAAAAAAAAAAAAAAA11111IIIIIIIIIIIIIIIIIIIIIIIIIII
AAAAAAAAAAAAAAAAAAAAAAAAAAAAAAAAA11111IIIIIIIIIIIIIIIIIIIIIIIIII
AAAAAAAAAAAAAAAAAAAAAAAAAAAAAAAAAA11111IIIIIIIIIIIIIIIIIIIIIIIII
AAAAAAAAAAAAAAAAAAAAAAAAAAAAAAAAAAA11111IIIIIIIIIIIIIIIIIIIIIIII
AAAAAAAAAAAAAAAAAAAAAAAAAAAAAAAAAAAA11111IIIIIIIIIIIIIIIIIIIIIII
AAAAAAAAAAAAAAAAAAAAAAAAAAAAAAAAAAAAA11111IIIIIIIIIIIIIIIIIIIIII
AAAAAAAAAAAAAAAAAAAAAAAAAAAAAAAAAAAAAA11111IIIIIIIIIIIIIIIIIIIII
AAAAAAAAAAAAAAAAAAAAAAAAAAAAAAAAAAAAAAA11111IIIIIIIIIIIIIIIIIIII
AAAAAAAAAAAAAAAAAAAAAAAAAAAAAAAAAAAAAAAA11111IIIIIIIIIIIIIIIIIII
AAAAAAAAAAAAAAAAAAAAAAAAAAAAAAAAAAAAAAAAA11111IIIIIIIIIIIIIIIIII
AAAAAAAAAAAAAAAAAAAAAAAAAAAAAAAAAAAAAAAAAA11111IIIIIIIIIIIIIIIII
AAAAAAAAAAAAAAAAAAAAAAAAAAAAAAAAAAAAAAAAAAA11111IIIIIIIIIIIIIIII
AAAAAAAAAAAAAAAAAAAAAAAAAAAAAAAAAAAAAAAAAAAA11111IIIIIIIIIIIIIII
AAAAAAAAAAAAAAAAAAAAAAAAAAAAAAAAAAAAAAAAAAAAA11111IIIIIIIIIIIIII
AAAAAAAAAAAAAAAAAAAAAAAAAAAAAAAAAAAAAAAAAAAAAA11111IIIIIIIIIIIII
AAAAAAAAAAAAAAAAAAAAAAAAAAAAAAAAAAAAAAAAAAAAAAA11111IIIIIIIIIIII
AAAAAAAAAAAAAAAAAAAAAAAAAAAAAAAAAAAAAAAAAAAAAAAA11111IIIIIIIIIII
AAAAAAAAAAAAAAAAAAAAAAAAAAAAAAAAAAAAAAAAAAAAAAAAA11111IIIIIIIIII
AAAAAAAAAAAAAAAAAAAAAAAAAAAAAAAAAAAAAAAAAAAAAAAAAA11111IIIIIIIII
AAAAAAAAAAAAAAAAAAAAAAAAAAAAAAAAAAAAAAAAAAAAAAAAAAA11111IIIIIIII
AAAAAAAAAAAAAAAAAAAAAAAAAAAAAAAAAAAAAAAAAAAAAAAAAAAA11111IIIIIII
AAAAAAAAAAAAAAAAAAAAAAAAAAAAAAAAAAAAAAAAAAAAAAAAAAAAA11111IIIIII
AAAAAAAAAAAAAAAAAAAAAAAAAAAAAAAAAAAAAAAAAAAAAAAAAAAAAA11111IIIII
AAAAAAAAAAAAAAAAAAAAAAAAAAAAAAAAAAAAAAAAAAAAAAAAAAAAAAA11111IIII
AAAAAAAAAAAAAAAAAAAAAAAAAAAAAAAAAAAAAAAAAAAAAAAAAAAAAAAA11111III
AAAAAAAAAAAAAAAAAAAAAAAAAAAAAAAAAAAAAAAAAAAAAAAAAAAAAAAAA11111II
AAAAAAAAAAAAAAAAAAAAAAAAAAAAAAAAAAAAAAAAAAAAAAAAAAAAAAAAAA11111I
AAAAAAAAAAAAAAAAAAAAAAAAAAAAAAAAAAAAAAAAAAAAAAAAAAAAAAAAAAA11111
AAAAAAAAAAAAAAAAAAAAAAAAAAAAAAAAAAAAAAAAAAAAAAAAAAAAAAAAAAAA1111
AAAAAAAAAAAAAAAAAAAAAAAAAAAAAAAAAAAAAAAAAAAAAAAAAAAAAAAAAAAAA111
AAAAAAAAAAAAAAAAAAAAAAAAAAAAAAAAAAAAAAAAAAAAAAAAAAAAAAAAAAAAAA11
AAAAAAAAAAAAAAAAAAAAAAAAAAAAAAAAAAAAAAAAAAAAAAAAAAAAAAAAAAAAAAA1
AAAAAAAAAAAAAAAAAAAAAAAAAAAAAAAAAAAAAAAAAAAAAAAAAAAAAAAAAAAAAAAA
[MLOP] Prefetch Degree Mean: 8.00267
[MLOP] Prefetch Degree SD: 0.372868
[MLOP] Max Score Left Mean (%): 89.8184
[MLOP] Max Score Left SD (%): 1.39381
[MLOP] Max Score Right Mean (%): 99.6008
[MLOP] Max Score Right SD (%): 0.255526

DRAM Statistics
 CHANNEL 0
 RQ ROW_BUFFER_HIT:    3134170  ROW_BUFFER_MISS:    3909483
 DBUS_CONGESTED:          3
 WQ ROW_BUFFER_HIT:    2124305  ROW_BUFFER_MISS:    4898533  FULL:     355393

 AVG_CONGESTED_CYCLE: 6
 All warmup complete: 5
Channel 0 Bank busy for read cycles: 0
Channel 0 Bank busy for write cycles: 0
Channel 0
Rank 0
0banks busy for read cycles: 4000
0banks busy for write cycles: 0
1banks busy for read cycles: 671855
1banks busy for write cycles: 493010
2banks busy for read cycles: 866846
2banks busy for write cycles: 493009
3banks busy for read cycles: 1175313
3banks busy for write cycles: 493007
4banks busy for read cycles: 1602701
4banks busy for write cycles: 493006
5banks busy for read cycles: 2322580
5banks busy for write cycles: 493005
6banks busy for read cycles: 3846824
6banks busy for write cycles: 493372
7banks busy for read cycles: 11755294
7banks busy for write cycles: 7523845
8banks busy for read cycles: 86332610
8banks busy for write cycles: 126980283

CPU 0 Branch Prediction Accuracy: 99.9751% MPKI: 0.00437997 Average ROB Occupancy at Mispredict: 313.29
Branch types
NOT_BRANCH: 196487682 98.2438%
BRANCH_DIRECT_JUMP: 876 0.000438%
BRANCH_INDIRECT: 0 0%
BRANCH_CONDITIONAL: 3509616 1.75481%
BRANCH_DIRECT_CALL: 876 0.000438%
BRANCH_INDIRECT_CALL: 0 0%
BRANCH_RETURN: 876 0.000438%
BRANCH_OTHER: 0 0%


CPU 1 Branch Prediction Accuracy: 99.9751% MPKI: 0.00437936 Average ROB Occupancy at Mispredict: 312.724
Branch types
NOT_BRANCH: 196964425 98.2439%
BRANCH_DIRECT_JUMP: 878 0.000437938%
BRANCH_INDIRECT: 0 0%
BRANCH_CONDITIONAL: 3518131 1.75481%
BRANCH_DIRECT_CALL: 878 0.000437938%
BRANCH_INDIRECT_CALL: 0 0%
BRANCH_RETURN: 878 0.000437938%
BRANCH_OTHER: 0 0%


CPU 2 Branch Prediction Accuracy: 99.9751% MPKI: 0.00438005 Average ROB Occupancy at Mispredict: 312.852
Branch types
NOT_BRANCH: 196933984 98.2439%
BRANCH_DIRECT_JUMP: 878 0.000438005%
BRANCH_INDIRECT: 0 0%
BRANCH_CONDITIONAL: 3517588 1.75481%
BRANCH_DIRECT_CALL: 878 0.000438005%
BRANCH_INDIRECT_CALL: 0 0%
BRANCH_RETURN: 878 0.000438005%
BRANCH_OTHER: 0 0%


CPU 3 Branch Prediction Accuracy: 99.9751% MPKI: 0.00437721 Average ROB Occupancy at Mispredict: 312.961
Branch types
NOT_BRANCH: 196611304 98.2438%
BRANCH_DIRECT_JUMP: 876 0.000437725%
BRANCH_INDIRECT: 0 0%
BRANCH_CONDITIONAL: 3511823 1.75481%
BRANCH_DIRECT_CALL: 876 0.000437725%
BRANCH_INDIRECT_CALL: 0 0%
BRANCH_RETURN: 876 0.000437725%
BRANCH_OTHER: 0 0%

DRAM PAGES: 1048576
Allocated PAGES: 138137
