
*** ChampSim Multicore Out-of-Order Simulator ***

Warmup Instructions: 50000000
Simulation Instructions: 200000000
Number of CPUs: 4
LLC sets: 8192
LLC ways: 16
Off-chip DRAM Size: 4096 MB Channels: 1 Width: 64-bit Data Rate: 6400 MT/s
CPU 0 runs ./traces/ligra/ligra_Components.com-lj.ungraph.gcc_6.3.0_O3.drop_15750M.length_250M.champsimtrace.xz
.xz
CPU 1 runs ./traces/ligra/ligra_PageRank.com-lj.ungraph.gcc_6.3.0_O3.drop_21750M.length_250M.champsimtrace.xz
.xz
CPU 2 runs ./traces/spec/623.xalancbmk_s-202B.champsimtrace.xz
.xz
CPU 3 runs ./traces/spec/654.roms_s-293B.champsimtrace.xz
.xz
BTB has LRU replacement policy
ITLB has LRU replacement policy
DTLB has LRU replacement policy
STLB has LRU replacement policy
L1I has LRU replacement policy
L1D has LRU replacement policy
Initialize SRRIP state for L2C
Initialize DRRIP state for LLC
BTB has LRU replacement policy
ITLB has LRU replacement policy
DTLB has LRU replacement policy
STLB has LRU replacement policy
L1I has LRU replacement policy
L1D has LRU replacement policy
Initialize SRRIP state for L2C
Initialize DRRIP state for LLC
BTB has LRU replacement policy
ITLB has LRU replacement policy
DTLB has LRU replacement policy
STLB has LRU replacement policy
L1I has LRU replacement policy
L1D has LRU replacement policy
Initialize SRRIP state for L2C
Initialize DRRIP state for LLC
BTB has LRU replacement policy
ITLB has LRU replacement policy
DTLB has LRU replacement policy
STLB has LRU replacement policy
L1I has LRU replacement policy
L1D has LRU replacement policy
Initialize SRRIP state for L2C
Initialize DRRIP state for LLC
Heartbeat CPU 2 instructions: 10000001 cycles: 2832454 heartbeat IPC: 3.53051 cumulative IPC: 3.53051 (Simulation time: 0 hr 2 min 38 sec) 
Heartbeat CPU 3 instructions: 10000001 cycles: 3119824 heartbeat IPC: 3.20531 cumulative IPC: 3.20531 (Simulation time: 0 hr 2 min 56 sec) 
Heartbeat CPU 1 instructions: 10000000 cycles: 3221562 heartbeat IPC: 3.10408 cumulative IPC: 3.10408 (Simulation time: 0 hr 3 min 2 sec) 
Heartbeat CPU 0 instructions: 10000003 cycles: 3241551 heartbeat IPC: 3.08494 cumulative IPC: 3.08494 (Simulation time: 0 hr 3 min 4 sec) 
Heartbeat CPU 2 instructions: 20000002 cycles: 5670296 heartbeat IPC: 3.5238 cumulative IPC: 3.52715 (Simulation time: 0 hr 5 min 34 sec) 
Heartbeat CPU 3 instructions: 20000003 cycles: 6307399 heartbeat IPC: 3.13718 cumulative IPC: 3.17088 (Simulation time: 0 hr 6 min 10 sec) 
Heartbeat CPU 1 instructions: 20000000 cycles: 6450243 heartbeat IPC: 3.09724 cumulative IPC: 3.10066 (Simulation time: 0 hr 6 min 17 sec) 
Heartbeat CPU 0 instructions: 20000001 cycles: 6472592 heartbeat IPC: 3.09498 cumulative IPC: 3.08995 (Simulation time: 0 hr 6 min 18 sec) 
Heartbeat CPU 2 instructions: 30000001 cycles: 8508298 heartbeat IPC: 3.52361 cumulative IPC: 3.52597 (Simulation time: 0 hr 8 min 9 sec) 
Heartbeat CPU 3 instructions: 30000000 cycles: 9427958 heartbeat IPC: 3.20455 cumulative IPC: 3.18203 (Simulation time: 0 hr 9 min 1 sec) 
Heartbeat CPU 1 instructions: 30000001 cycles: 9678145 heartbeat IPC: 3.09799 cumulative IPC: 3.09977 (Simulation time: 0 hr 9 min 16 sec) 
Heartbeat CPU 0 instructions: 30000001 cycles: 9687964 heartbeat IPC: 3.11006 cumulative IPC: 3.09663 (Simulation time: 0 hr 9 min 16 sec) 
Heartbeat CPU 2 instructions: 40000001 cycles: 11339816 heartbeat IPC: 3.53167 cumulative IPC: 3.52739 (Simulation time: 0 hr 10 min 48 sec) 
Heartbeat CPU 3 instructions: 40000002 cycles: 12615590 heartbeat IPC: 3.13713 cumulative IPC: 3.17068 (Simulation time: 0 hr 11 min 54 sec) 
Heartbeat CPU 0 instructions: 40000001 cycles: 12893973 heartbeat IPC: 3.11914 cumulative IPC: 3.10222 (Simulation time: 0 hr 12 min 9 sec) 
Heartbeat CPU 1 instructions: 40000003 cycles: 12906509 heartbeat IPC: 3.09754 cumulative IPC: 3.09921 (Simulation time: 0 hr 12 min 10 sec) 
Heartbeat CPU 2 instructions: 50000000 cycles: 14181443 heartbeat IPC: 3.51911 cumulative IPC: 3.52573 (Simulation time: 0 hr 13 min 21 sec) 
Heartbeat CPU 3 instructions: 50000003 cycles: 15735617 heartbeat IPC: 3.2051 cumulative IPC: 3.17751 (Simulation time: 0 hr 14 min 42 sec) 
Heartbeat CPU 0 instructions: 50000002 cycles: 16093738 heartbeat IPC: 3.12523 cumulative IPC: 3.1068 (Simulation time: 0 hr 15 min 0 sec) 
Heartbeat CPU 1 instructions: 50000000 cycles: 16130018 heartbeat IPC: 3.10221 cumulative IPC: 3.09981 (Simulation time: 0 hr 15 min 2 sec) 

Warmup complete CPU 0 instructions: 50098414 cycles: 16130019 (Simulation time: 0 hr 15 min 2 sec) 
Warmup complete CPU 1 instructions: 50000004 cycles: 16130019 (Simulation time: 0 hr 15 min 2 sec) 
Warmup complete CPU 2 instructions: 56884838 cycles: 16130018 (Simulation time: 0 hr 15 min 2 sec) 
Warmup complete CPU 3 instructions: 51291880 cycles: 16130018 (Simulation time: 0 hr 15 min 2 sec) 

Heartbeat CPU 2 instructions: 60000000 cycles: 24494938 heartbeat IPC: 0.969603 cumulative IPC: 0.372408 (Simulation time: 0 hr 16 min 57 sec) 
Heartbeat CPU 3 instructions: 60000002 cycles: 26967222 heartbeat IPC: 0.890345 cumulative IPC: 0.80354 (Simulation time: 0 hr 17 min 27 sec) 
Heartbeat CPU 0 instructions: 60000001 cycles: 29125884 heartbeat IPC: 0.767333 cumulative IPC: 0.761903 (Simulation time: 0 hr 18 min 5 sec) 
Heartbeat CPU 3 instructions: 70000003 cycles: 34899018 heartbeat IPC: 1.26075 cumulative IPC: 0.996756 (Simulation time: 0 hr 19 min 32 sec) 
Heartbeat CPU 0 instructions: 70000002 cycles: 43233539 heartbeat IPC: 0.708835 cumulative IPC: 0.734281 (Simulation time: 0 hr 21 min 40 sec) 
Heartbeat CPU 3 instructions: 80000002 cycles: 44938962 heartbeat IPC: 0.996021 cumulative IPC: 0.9965 (Simulation time: 0 hr 22 min 3 sec) 
Heartbeat CPU 3 instructions: 90000002 cycles: 54203904 heartbeat IPC: 1.07934 cumulative IPC: 1.01666 (Simulation time: 0 hr 24 min 29 sec) 
Heartbeat CPU 0 instructions: 80000000 cycles: 57067625 heartbeat IPC: 0.722852 cumulative IPC: 0.730419 (Simulation time: 0 hr 25 min 7 sec) 
Heartbeat CPU 2 instructions: 70000000 cycles: 60684879 heartbeat IPC: 0.27632 cumulative IPC: 0.29436 (Simulation time: 0 hr 25 min 56 sec) 
Heartbeat CPU 3 instructions: 100000002 cycles: 64371012 heartbeat IPC: 0.983564 cumulative IPC: 1.00968 (Simulation time: 0 hr 26 min 48 sec) 
Heartbeat CPU 0 instructions: 90000001 cycles: 71066571 heartbeat IPC: 0.71434 cumulative IPC: 0.726321 (Simulation time: 0 hr 28 min 24 sec) 
Heartbeat CPU 3 instructions: 110000000 cycles: 75010415 heartbeat IPC: 0.939902 cumulative IPC: 0.997074 (Simulation time: 0 hr 29 min 16 sec) 
Heartbeat CPU 3 instructions: 120000000 cycles: 84942705 heartbeat IPC: 1.00682 cumulative IPC: 0.99848 (Simulation time: 0 hr 31 min 47 sec) 
Heartbeat CPU 0 instructions: 100000003 cycles: 85846878 heartbeat IPC: 0.676576 cumulative IPC: 0.715775 (Simulation time: 0 hr 31 min 57 sec) 
Heartbeat CPU 2 instructions: 80000000 cycles: 88976522 heartbeat IPC: 0.353461 cumulative IPC: 0.317313 (Simulation time: 0 hr 32 min 35 sec) 
Heartbeat CPU 3 instructions: 130000000 cycles: 96655030 heartbeat IPC: 0.853801 cumulative IPC: 0.977437 (Simulation time: 0 hr 34 min 35 sec) 
Heartbeat CPU 0 instructions: 110000000 cycles: 100850507 heartbeat IPC: 0.666505 cumulative IPC: 0.70705 (Simulation time: 0 hr 35 min 41 sec) 
Heartbeat CPU 1 instructions: 60000003 cycles: 102337413 heartbeat IPC: 0.115999 cumulative IPC: 0.115999 (Simulation time: 0 hr 36 min 5 sec) 
Heartbeat CPU 3 instructions: 140000003 cycles: 105672300 heartbeat IPC: 1.10898 cumulative IPC: 0.990684 (Simulation time: 0 hr 37 min 3 sec) 
Heartbeat CPU 3 instructions: 150000003 cycles: 114197089 heartbeat IPC: 1.17305 cumulative IPC: 1.00654 (Simulation time: 0 hr 39 min 21 sec) 
Heartbeat CPU 2 instructions: 90000001 cycles: 114680201 heartbeat IPC: 0.389049 cumulative IPC: 0.336023 (Simulation time: 0 hr 39 min 30 sec) 
Heartbeat CPU 0 instructions: 120000003 cycles: 115494370 heartbeat IPC: 0.68288 cumulative IPC: 0.703488 (Simulation time: 0 hr 39 min 44 sec) 
Heartbeat CPU 3 instructions: 160000003 cycles: 122375482 heartbeat IPC: 1.22273 cumulative IPC: 1.02318 (Simulation time: 0 hr 41 min 32 sec) 
Heartbeat CPU 3 instructions: 170000002 cycles: 130337311 heartbeat IPC: 1.25599 cumulative IPC: 1.03941 (Simulation time: 0 hr 43 min 40 sec) 
Heartbeat CPU 0 instructions: 130000001 cycles: 131067003 heartbeat IPC: 0.642152 cumulative IPC: 0.695177 (Simulation time: 0 hr 43 min 51 sec) 
Heartbeat CPU 3 instructions: 180000001 cycles: 138449876 heartbeat IPC: 1.23266 cumulative IPC: 1.05223 (Simulation time: 0 hr 45 min 50 sec) 
Heartbeat CPU 2 instructions: 100000000 cycles: 138930168 heartbeat IPC: 0.412372 cumulative IPC: 0.3511 (Simulation time: 0 hr 45 min 59 sec) 
Heartbeat CPU 3 instructions: 190000002 cycles: 146368712 heartbeat IPC: 1.26281 cumulative IPC: 1.06503 (Simulation time: 0 hr 48 min 14 sec) 
Heartbeat CPU 0 instructions: 140000002 cycles: 147502830 heartbeat IPC: 0.608427 cumulative IPC: 0.684324 (Simulation time: 0 hr 48 min 35 sec) 
Heartbeat CPU 3 instructions: 200000000 cycles: 154587136 heartbeat IPC: 1.21678 cumulative IPC: 1.07404 (Simulation time: 0 hr 50 min 43 sec) 
Heartbeat CPU 2 instructions: 110000000 cycles: 159516427 heartbeat IPC: 0.485761 cumulative IPC: 0.370434 (Simulation time: 0 hr 52 min 8 sec) 
Heartbeat CPU 3 instructions: 210000000 cycles: 162314052 heartbeat IPC: 1.29418 cumulative IPC: 1.08567 (Simulation time: 0 hr 52 min 58 sec) 
Heartbeat CPU 0 instructions: 150000003 cycles: 166267703 heartbeat IPC: 0.532911 cumulative IPC: 0.6654 (Simulation time: 0 hr 54 min 5 sec) 
Heartbeat CPU 1 instructions: 70000003 cycles: 167201234 heartbeat IPC: 0.154169 cumulative IPC: 0.132388 (Simulation time: 0 hr 54 min 21 sec) 
Heartbeat CPU 3 instructions: 220000000 cycles: 170102245 heartbeat IPC: 1.28399 cumulative IPC: 1.0957 (Simulation time: 0 hr 55 min 14 sec) 
Heartbeat CPU 3 instructions: 230000000 cycles: 177706045 heartbeat IPC: 1.31513 cumulative IPC: 1.10603 (Simulation time: 0 hr 57 min 33 sec) 
Heartbeat CPU 2 instructions: 120000002 cycles: 178249448 heartbeat IPC: 0.533817 cumulative IPC: 0.389313 (Simulation time: 0 hr 57 min 41 sec) 
Heartbeat CPU 0 instructions: 160000003 cycles: 185302740 heartbeat IPC: 0.525347 cumulative IPC: 0.649641 (Simulation time: 0 hr 59 min 46 sec) 
Heartbeat CPU 3 instructions: 240000001 cycles: 185446863 heartbeat IPC: 1.29185 cumulative IPC: 1.11453 (Simulation time: 0 hr 59 min 49 sec) 
Heartbeat CPU 3 instructions: 250000001 cycles: 193302171 heartbeat IPC: 1.27302 cumulative IPC: 1.12155 (Simulation time: 1 hr 2 min 4 sec) 
Finished CPU 3 instructions: 200000001 cycles: 178149291 cumulative IPC: 1.12265 (Simulation time: 1 hr 2 min 20 sec) 
Heartbeat CPU 2 instructions: 130000002 cycles: 195434657 heartbeat IPC: 0.581896 cumulative IPC: 0.407771 (Simulation time: 1 hr 2 min 40 sec) 
Heartbeat CPU 3 instructions: 260000000 cycles: 200999122 heartbeat IPC: 1.29922 cumulative IPC: 1.12895 (Simulation time: 1 hr 4 min 22 sec) 
Heartbeat CPU 0 instructions: 170000000 cycles: 204616812 heartbeat IPC: 0.517757 cumulative IPC: 0.636127 (Simulation time: 1 hr 5 min 30 sec) 
Heartbeat CPU 3 instructions: 270000000 cycles: 208741251 heartbeat IPC: 1.29163 cumulative IPC: 1.13549 (Simulation time: 1 hr 6 min 56 sec) 
Heartbeat CPU 2 instructions: 140000001 cycles: 214769694 heartbeat IPC: 0.517196 cumulative IPC: 0.418422 (Simulation time: 1 hr 8 min 51 sec) 
Heartbeat CPU 0 instructions: 180000001 cycles: 214856399 heartbeat IPC: 0.976602 cumulative IPC: 0.653671 (Simulation time: 1 hr 8 min 52 sec) 
Heartbeat CPU 3 instructions: 280000003 cycles: 216839377 heartbeat IPC: 1.23485 cumulative IPC: 1.1395 (Simulation time: 1 hr 9 min 28 sec) 
Heartbeat CPU 3 instructions: 290000003 cycles: 224926351 heartbeat IPC: 1.23656 cumulative IPC: 1.14326 (Simulation time: 1 hr 11 min 59 sec) 
Heartbeat CPU 0 instructions: 190000001 cycles: 225219142 heartbeat IPC: 0.964995 cumulative IPC: 0.6691 (Simulation time: 1 hr 12 min 5 sec) 
Heartbeat CPU 1 instructions: 80000002 cycles: 231860362 heartbeat IPC: 0.154657 cumulative IPC: 0.139062 (Simulation time: 1 hr 13 min 55 sec) 
Heartbeat CPU 3 instructions: 300000002 cycles: 233117606 heartbeat IPC: 1.22081 cumulative IPC: 1.14619 (Simulation time: 1 hr 14 min 20 sec) 
Heartbeat CPU 0 instructions: 200000003 cycles: 235568408 heartbeat IPC: 0.966252 cumulative IPC: 0.683115 (Simulation time: 1 hr 15 min 3 sec) 
Heartbeat CPU 2 instructions: 150000001 cycles: 238459649 heartbeat IPC: 0.42212 cumulative IPC: 0.418816 (Simulation time: 1 hr 15 min 57 sec) 
Heartbeat CPU 3 instructions: 310000000 cycles: 241084918 heartbeat IPC: 1.25513 cumulative IPC: 1.15004 (Simulation time: 1 hr 16 min 48 sec) 
Heartbeat CPU 0 instructions: 210000000 cycles: 245714810 heartbeat IPC: 0.985571 cumulative IPC: 0.696482 (Simulation time: 1 hr 18 min 23 sec) 
Heartbeat CPU 3 instructions: 320000003 cycles: 249146132 heartbeat IPC: 1.24051 cumulative IPC: 1.15317 (Simulation time: 1 hr 19 min 30 sec) 
Heartbeat CPU 0 instructions: 220000000 cycles: 255917095 heartbeat IPC: 0.980173 cumulative IPC: 0.708552 (Simulation time: 1 hr 21 min 40 sec) 
Heartbeat CPU 3 instructions: 330000000 cycles: 257096762 heartbeat IPC: 1.25776 cumulative IPC: 1.15662 (Simulation time: 1 hr 22 min 3 sec) 
Heartbeat CPU 2 instructions: 160000000 cycles: 257609809 heartbeat IPC: 0.522189 cumulative IPC: 0.427014 (Simulation time: 1 hr 22 min 13 sec) 
Heartbeat CPU 3 instructions: 340000000 cycles: 264976538 heartbeat IPC: 1.26907 cumulative IPC: 1.16019 (Simulation time: 1 hr 24 min 34 sec) 
Heartbeat CPU 0 instructions: 230000000 cycles: 265997875 heartbeat IPC: 0.991987 cumulative IPC: 0.719987 (Simulation time: 1 hr 24 min 54 sec) 
Heartbeat CPU 3 instructions: 350000002 cycles: 273050619 heartbeat IPC: 1.23853 cumulative IPC: 1.16265 (Simulation time: 1 hr 27 min 5 sec) 
Heartbeat CPU 0 instructions: 240000001 cycles: 276476488 heartbeat IPC: 0.954325 cumulative IPC: 0.729419 (Simulation time: 1 hr 28 min 6 sec) 
Heartbeat CPU 2 instructions: 170000002 cycles: 280093637 heartbeat IPC: 0.444764 cumulative IPC: 0.428526 (Simulation time: 1 hr 29 min 21 sec) 
Heartbeat CPU 3 instructions: 360000000 cycles: 280922302 heartbeat IPC: 1.27038 cumulative IPC: 1.16585 (Simulation time: 1 hr 29 min 35 sec) 
*** Reached end of trace for Core: 0 Repeating trace: ./traces/ligra/ligra_Components.com-lj.ungraph.gcc_6.3.0_O3.drop_15750M.length_250M.champsimtrace.xz
Heartbeat CPU 0 instructions: 250000002 cycles: 286711406 heartbeat IPC: 0.977048 cumulative IPC: 0.738785 (Simulation time: 1 hr 31 min 17 sec) 
Finished CPU 0 instructions: 200000002 cycles: 270734249 cumulative IPC: 0.738732 (Simulation time: 1 hr 31 min 19 sec) 
Heartbeat CPU 3 instructions: 370000000 cycles: 289403118 heartbeat IPC: 1.17913 cumulative IPC: 1.16626 (Simulation time: 1 hr 31 min 54 sec) 
Heartbeat CPU 3 instructions: 380000000 cycles: 299500962 heartbeat IPC: 0.99031 cumulative IPC: 1.15999 (Simulation time: 1 hr 34 min 7 sec) 
Heartbeat CPU 0 instructions: 260000000 cycles: 299591823 heartbeat IPC: 0.776372 cumulative IPC: 0.740493 (Simulation time: 1 hr 34 min 8 sec) 
Heartbeat CPU 1 instructions: 90000003 cycles: 302053282 heartbeat IPC: 0.142465 cumulative IPC: 0.139898 (Simulation time: 1 hr 34 min 40 sec) 
Heartbeat CPU 2 instructions: 180000001 cycles: 308569436 heartbeat IPC: 0.351175 cumulative IPC: 0.420994 (Simulation time: 1 hr 36 min 12 sec) 
Heartbeat CPU 3 instructions: 390000003 cycles: 309484494 heartbeat IPC: 1.00165 cumulative IPC: 1.1546 (Simulation time: 1 hr 36 min 25 sec) 
Heartbeat CPU 0 instructions: 270000000 cycles: 312523655 heartbeat IPC: 0.773286 cumulative IPC: 0.741924 (Simulation time: 1 hr 37 min 8 sec) 
Heartbeat CPU 3 instructions: 400000000 cycles: 318998914 heartbeat IPC: 1.05104 cumulative IPC: 1.15135 (Simulation time: 1 hr 38 min 37 sec) 
Heartbeat CPU 0 instructions: 280000000 cycles: 325304763 heartbeat IPC: 0.782405 cumulative IPC: 0.743598 (Simulation time: 1 hr 40 min 0 sec) 
Heartbeat CPU 3 instructions: 410000003 cycles: 328853483 heartbeat IPC: 1.01476 cumulative IPC: 1.14705 (Simulation time: 1 hr 40 min 51 sec) 
Heartbeat CPU 0 instructions: 290000000 cycles: 338158064 heartbeat IPC: 0.77801 cumulative IPC: 0.744971 (Simulation time: 1 hr 42 min 59 sec) 
Heartbeat CPU 3 instructions: 420000003 cycles: 338826718 heartbeat IPC: 1.00268 cumulative IPC: 1.14258 (Simulation time: 1 hr 43 min 8 sec) 
Heartbeat CPU 3 instructions: 430000003 cycles: 348242324 heartbeat IPC: 1.06207 cumulative IPC: 1.1403 (Simulation time: 1 hr 45 min 13 sec) 
Heartbeat CPU 0 instructions: 300000003 cycles: 350973958 heartbeat IPC: 0.780281 cumulative IPC: 0.746323 (Simulation time: 1 hr 45 min 50 sec) 
Heartbeat CPU 2 instructions: 190000001 cycles: 351835160 heartbeat IPC: 0.23113 cumulative IPC: 0.396524 (Simulation time: 1 hr 46 min 2 sec) 
Heartbeat CPU 3 instructions: 440000000 cycles: 358598872 heartbeat IPC: 0.965572 cumulative IPC: 1.13502 (Simulation time: 1 hr 47 min 33 sec) 
Heartbeat CPU 0 instructions: 310000000 cycles: 364093698 heartbeat IPC: 0.76221 cumulative IPC: 0.746922 (Simulation time: 1 hr 48 min 54 sec) 
Heartbeat CPU 3 instructions: 450000003 cycles: 368772867 heartbeat IPC: 0.982898 cumulative IPC: 1.13063 (Simulation time: 1 hr 49 min 53 sec) 
Heartbeat CPU 0 instructions: 320000001 cycles: 377532124 heartbeat IPC: 0.744135 cumulative IPC: 0.746818 (Simulation time: 1 hr 51 min 51 sec) 
Heartbeat CPU 3 instructions: 460000002 cycles: 378847892 heartbeat IPC: 0.992553 cumulative IPC: 1.12679 (Simulation time: 1 hr 52 min 11 sec) 
Heartbeat CPU 2 instructions: 200000003 cycles: 381133483 heartbeat IPC: 0.341317 cumulative IPC: 0.392093 (Simulation time: 1 hr 52 min 43 sec) 
Heartbeat CPU 3 instructions: 470000002 cycles: 388528609 heartbeat IPC: 1.03298 cumulative IPC: 1.12435 (Simulation time: 1 hr 54 min 30 sec) 
Heartbeat CPU 0 instructions: 330000000 cycles: 390367743 heartbeat IPC: 0.779082 cumulative IPC: 0.747925 (Simulation time: 1 hr 54 min 56 sec) 
Heartbeat CPU 3 instructions: 480000002 cycles: 397827306 heartbeat IPC: 1.07542 cumulative IPC: 1.12316 (Simulation time: 1 hr 56 min 38 sec) 
Heartbeat CPU 0 instructions: 340000001 cycles: 403661473 heartbeat IPC: 0.752234 cumulative IPC: 0.748072 (Simulation time: 1 hr 58 min 2 sec) 
Heartbeat CPU 1 instructions: 100000000 cycles: 405051642 heartbeat IPC: 0.0970889 cumulative IPC: 0.128561 (Simulation time: 1 hr 58 min 20 sec) 
Heartbeat CPU 3 instructions: 490000001 cycles: 407621920 heartbeat IPC: 1.02097 cumulative IPC: 1.12061 (Simulation time: 1 hr 58 min 57 sec) 
Heartbeat CPU 3 instructions: 500000001 cycles: 416632149 heartbeat IPC: 1.10985 cumulative IPC: 1.12036 (Simulation time: 2 hr 1 min 16 sec) 
Heartbeat CPU 0 instructions: 350000000 cycles: 417428700 heartbeat IPC: 0.726363 cumulative IPC: 0.747328 (Simulation time: 2 hr 1 min 26 sec) 
Heartbeat CPU 2 instructions: 210000003 cycles: 418532033 heartbeat IPC: 0.26739 cumulative IPC: 0.380503 (Simulation time: 2 hr 1 min 42 sec) 
Heartbeat CPU 3 instructions: 510000001 cycles: 425586268 heartbeat IPC: 1.1168 cumulative IPC: 1.12029 (Simulation time: 2 hr 3 min 25 sec) 
Heartbeat CPU 0 instructions: 360000002 cycles: 431797236 heartbeat IPC: 0.695965 cumulative IPC: 0.745552 (Simulation time: 2 hr 4 min 57 sec) 
Heartbeat CPU 3 instructions: 520000000 cycles: 434813476 heartbeat IPC: 1.08375 cumulative IPC: 1.11948 (Simulation time: 2 hr 5 min 39 sec) 
Heartbeat CPU 3 instructions: 530000002 cycles: 443837265 heartbeat IPC: 1.10818 cumulative IPC: 1.11924 (Simulation time: 2 hr 7 min 53 sec) 
Heartbeat CPU 0 instructions: 370000000 cycles: 446832049 heartbeat IPC: 0.665123 cumulative IPC: 0.742745 (Simulation time: 2 hr 8 min 33 sec) 
Heartbeat CPU 2 instructions: 220000000 cycles: 449500059 heartbeat IPC: 0.322914 cumulative IPC: 0.376388 (Simulation time: 2 hr 9 min 13 sec) 
Heartbeat CPU 3 instructions: 540000002 cycles: 452923590 heartbeat IPC: 1.10055 cumulative IPC: 1.11885 (Simulation time: 2 hr 10 min 7 sec) 
Heartbeat CPU 3 instructions: 550000000 cycles: 461359671 heartbeat IPC: 1.18538 cumulative IPC: 1.12011 (Simulation time: 2 hr 12 min 9 sec) 
Heartbeat CPU 0 instructions: 380000000 cycles: 463047090 heartbeat IPC: 0.616711 cumulative IPC: 0.738172 (Simulation time: 2 hr 12 min 33 sec) 
Heartbeat CPU 3 instructions: 560000001 cycles: 469995769 heartbeat IPC: 1.15793 cumulative IPC: 1.12083 (Simulation time: 2 hr 14 min 19 sec) 
Heartbeat CPU 2 instructions: 230000001 cycles: 475936801 heartbeat IPC: 0.378261 cumulative IPC: 0.376495 (Simulation time: 2 hr 15 min 53 sec) 
Heartbeat CPU 3 instructions: 570000001 cycles: 478494653 heartbeat IPC: 1.17663 cumulative IPC: 1.12186 (Simulation time: 2 hr 16 min 34 sec) 
Heartbeat CPU 0 instructions: 390000002 cycles: 480107477 heartbeat IPC: 0.586153 cumulative IPC: 0.732582 (Simulation time: 2 hr 17 min 2 sec) 
Heartbeat CPU 3 instructions: 580000000 cycles: 486914094 heartbeat IPC: 1.18773 cumulative IPC: 1.12304 (Simulation time: 2 hr 18 min 52 sec) 
Heartbeat CPU 1 instructions: 110000000 cycles: 489482597 heartbeat IPC: 0.11844 cumulative IPC: 0.126755 (Simulation time: 2 hr 19 min 33 sec) 
Heartbeat CPU 3 instructions: 590000000 cycles: 494734008 heartbeat IPC: 1.27879 cumulative IPC: 1.12558 (Simulation time: 2 hr 21 min 4 sec) 
Heartbeat CPU 2 instructions: 240000003 cycles: 494773230 heartbeat IPC: 0.530886 cumulative IPC: 0.382571 (Simulation time: 2 hr 21 min 5 sec) 
Heartbeat CPU 0 instructions: 400000000 cycles: 499626043 heartbeat IPC: 0.512333 cumulative IPC: 0.723691 (Simulation time: 2 hr 22 min 21 sec) 
Heartbeat CPU 3 instructions: 600000000 cycles: 502748414 heartbeat IPC: 1.24775 cumulative IPC: 1.12759 (Simulation time: 2 hr 23 min 11 sec) 
Heartbeat CPU 3 instructions: 610000003 cycles: 510916250 heartbeat IPC: 1.22431 cumulative IPC: 1.12919 (Simulation time: 2 hr 25 min 11 sec) 
Heartbeat CPU 2 instructions: 250000001 cycles: 516482372 heartbeat IPC: 0.460635 cumulative IPC: 0.385958 (Simulation time: 2 hr 26 min 33 sec) 
Heartbeat CPU 3 instructions: 620000003 cycles: 519005847 heartbeat IPC: 1.23616 cumulative IPC: 1.13091 (Simulation time: 2 hr 27 min 13 sec) 
Heartbeat CPU 0 instructions: 410000002 cycles: 520128362 heartbeat IPC: 0.48775 cumulative IPC: 0.714093 (Simulation time: 2 hr 27 min 30 sec) 
Heartbeat CPU 3 instructions: 630000003 cycles: 527064698 heartbeat IPC: 1.24087 cumulative IPC: 1.13265 (Simulation time: 2 hr 29 min 18 sec) 
Finished CPU 2 instructions: 200000003 cycles: 515669969 cumulative IPC: 0.387845 (Simulation time: 2 hr 30 min 42 sec) 
Heartbeat CPU 3 instructions: 640000000 cycles: 535133749 heartbeat IPC: 1.2393 cumulative IPC: 1.1343 (Simulation time: 2 hr 31 min 36 sec) 
Heartbeat CPU 2 instructions: 260000003 cycles: 538108980 heartbeat IPC: 0.462393 cumulative IPC: 0.389125 (Simulation time: 2 hr 32 min 24 sec) 
Heartbeat CPU 0 instructions: 420000003 cycles: 540392066 heartbeat IPC: 0.493493 cumulative IPC: 0.705566 (Simulation time: 2 hr 33 min 7 sec) 
Heartbeat CPU 3 instructions: 650000000 cycles: 543176806 heartbeat IPC: 1.24331 cumulative IPC: 1.13597 (Simulation time: 2 hr 34 min 4 sec) 
Heartbeat CPU 1 instructions: 120000001 cycles: 547557597 heartbeat IPC: 0.172191 cumulative IPC: 0.131721 (Simulation time: 2 hr 35 min 29 sec) 
Heartbeat CPU 0 instructions: 430000000 cycles: 551012334 heartbeat IPC: 0.941596 cumulative IPC: 0.710253 (Simulation time: 2 hr 36 min 35 sec) 
Heartbeat CPU 3 instructions: 660000000 cycles: 551627647 heartbeat IPC: 1.18331 cumulative IPC: 1.13671 (Simulation time: 2 hr 36 min 46 sec) 
Heartbeat CPU 2 instructions: 270000000 cycles: 558044762 heartbeat IPC: 0.50161 cumulative IPC: 0.393263 (Simulation time: 2 hr 38 min 40 sec) 
Heartbeat CPU 3 instructions: 670000000 cycles: 560222170 heartbeat IPC: 1.16353 cumulative IPC: 1.13714 (Simulation time: 2 hr 39 min 17 sec) 
Heartbeat CPU 0 instructions: 440000000 cycles: 561937387 heartbeat IPC: 0.915327 cumulative IPC: 0.714357 (Simulation time: 2 hr 39 min 50 sec) 
Heartbeat CPU 3 instructions: 680000000 cycles: 568567922 heartbeat IPC: 1.19821 cumulative IPC: 1.13806 (Simulation time: 2 hr 41 min 59 sec) 
Heartbeat CPU 0 instructions: 450000002 cycles: 572894268 heartbeat IPC: 0.912669 cumulative IPC: 0.71826 (Simulation time: 2 hr 43 min 19 sec) 
Heartbeat CPU 3 instructions: 690000003 cycles: 577119494 heartbeat IPC: 1.16938 cumulative IPC: 1.13854 (Simulation time: 2 hr 44 min 40 sec) 
Heartbeat CPU 2 instructions: 280000002 cycles: 580144702 heartbeat IPC: 0.45249 cumulative IPC: 0.395584 (Simulation time: 2 hr 45 min 37 sec) 
Heartbeat CPU 0 instructions: 460000002 cycles: 583748310 heartbeat IPC: 0.921316 cumulative IPC: 0.722143 (Simulation time: 2 hr 46 min 46 sec) 
Heartbeat CPU 3 instructions: 700000003 cycles: 585464610 heartbeat IPC: 1.19831 cumulative IPC: 1.13941 (Simulation time: 2 hr 47 min 18 sec) 
Heartbeat CPU 3 instructions: 710000002 cycles: 593548136 heartbeat IPC: 1.23708 cumulative IPC: 1.14078 (Simulation time: 2 hr 49 min 54 sec) 
Heartbeat CPU 0 instructions: 470000000 cycles: 594256634 heartbeat IPC: 0.951626 cumulative IPC: 0.726314 (Simulation time: 2 hr 50 min 7 sec) 
Heartbeat CPU 3 instructions: 720000002 cycles: 601882139 heartbeat IPC: 1.1999 cumulative IPC: 1.14162 (Simulation time: 2 hr 52 min 31 sec) 
Heartbeat CPU 2 instructions: 290000003 cycles: 603326036 heartbeat IPC: 0.431382 cumulative IPC: 0.396997 (Simulation time: 2 hr 52 min 57 sec) 
Heartbeat CPU 0 instructions: 480000002 cycles: 605075098 heartbeat IPC: 0.924346 cumulative IPC: 0.729952 (Simulation time: 2 hr 53 min 29 sec) 
Heartbeat CPU 3 instructions: 730000002 cycles: 610156726 heartbeat IPC: 1.20852 cumulative IPC: 1.14255 (Simulation time: 2 hr 55 min 0 sec) 
Heartbeat CPU 0 instructions: 490000000 cycles: 615741612 heartbeat IPC: 0.937513 cumulative IPC: 0.733644 (Simulation time: 2 hr 56 min 43 sec) 
Heartbeat CPU 3 instructions: 740000001 cycles: 618817803 heartbeat IPC: 1.15459 cumulative IPC: 1.14273 (Simulation time: 2 hr 57 min 37 sec) 
Heartbeat CPU 1 instructions: 130000000 cycles: 623223964 heartbeat IPC: 0.132159 cumulative IPC: 0.131775 (Simulation time: 2 hr 58 min 46 sec) 
*** Reached end of trace for Core: 0 Repeating trace: ./traces/ligra/ligra_Components.com-lj.ungraph.gcc_6.3.0_O3.drop_15750M.length_250M.champsimtrace.xz
Heartbeat CPU 0 instructions: 500000001 cycles: 626922228 heartbeat IPC: 0.894405 cumulative IPC: 0.736587 (Simulation time: 2 hr 59 min 53 sec) 
Heartbeat CPU 3 instructions: 750000003 cycles: 628007196 heartbeat IPC: 1.08821 cumulative IPC: 1.14191 (Simulation time: 3 hr 0 min 11 sec) 
Heartbeat CPU 2 instructions: 300000000 cycles: 629043236 heartbeat IPC: 0.388845 cumulative IPC: 0.396655 (Simulation time: 3 hr 0 min 28 sec) 
Heartbeat CPU 3 instructions: 760000003 cycles: 640237224 heartbeat IPC: 0.81766 cumulative IPC: 1.13556 (Simulation time: 3 hr 3 min 7 sec) 
Heartbeat CPU 0 instructions: 510000001 cycles: 640418842 heartbeat IPC: 0.740927 cumulative IPC: 0.736681 (Simulation time: 3 hr 3 min 10 sec) 
Heartbeat CPU 0 instructions: 520000001 cycles: 653740262 heartbeat IPC: 0.750671 cumulative IPC: 0.736973 (Simulation time: 3 hr 5 min 38 sec) 
Heartbeat CPU 2 instructions: 310000000 cycles: 665367253 heartbeat IPC: 0.2753 cumulative IPC: 0.389865 (Simulation time: 3 hr 7 min 41 sec) 
Heartbeat CPU 0 instructions: 530000003 cycles: 668815477 heartbeat IPC: 0.663341 cumulative IPC: 0.735272 (Simulation time: 3 hr 8 min 11 sec) 
Heartbeat CPU 3 instructions: 770000000 cycles: 670435031 heartbeat IPC: 0.33115 cumulative IPC: 1.09843 (Simulation time: 3 hr 8 min 24 sec) 
Heartbeat CPU 0 instructions: 540000003 cycles: 684002146 heartbeat IPC: 0.658472 cumulative IPC: 0.733526 (Simulation time: 3 hr 10 min 34 sec) 
Heartbeat CPU 0 instructions: 550000000 cycles: 699284364 heartbeat IPC: 0.654355 cumulative IPC: 0.731755 (Simulation time: 3 hr 13 min 5 sec) 
Heartbeat CPU 2 instructions: 320000003 cycles: 704916272 heartbeat IPC: 0.252851 cumulative IPC: 0.381998 (Simulation time: 3 hr 13 min 58 sec) 
Heartbeat CPU 3 instructions: 780000000 cycles: 710155924 heartbeat IPC: 0.251757 cumulative IPC: 1.04997 (Simulation time: 3 hr 14 min 42 sec) 
Heartbeat CPU 0 instructions: 560000001 cycles: 713990718 heartbeat IPC: 0.679978 cumulative IPC: 0.730664 (Simulation time: 3 hr 15 min 21 sec) 
Heartbeat CPU 0 instructions: 570000002 cycles: 729514674 heartbeat IPC: 0.644166 cumulative IPC: 0.728782 (Simulation time: 3 hr 17 min 49 sec) 
Heartbeat CPU 1 instructions: 140000000 cycles: 740310433 heartbeat IPC: 0.085407 cumulative IPC: 0.124278 (Simulation time: 3 hr 19 min 42 sec) 
Heartbeat CPU 2 instructions: 330000000 cycles: 741105239 heartbeat IPC: 0.276327 cumulative IPC: 0.376723 (Simulation time: 3 hr 19 min 50 sec) 
Heartbeat CPU 0 instructions: 580000002 cycles: 744814220 heartbeat IPC: 0.653614 cumulative IPC: 0.727203 (Simulation time: 3 hr 20 min 29 sec) 
Heartbeat CPU 3 instructions: 790000001 cycles: 750594109 heartbeat IPC: 0.247291 cumulative IPC: 1.00578 (Simulation time: 3 hr 21 min 23 sec) 
Heartbeat CPU 0 instructions: 590000003 cycles: 760491452 heartbeat IPC: 0.637868 cumulative IPC: 0.725322 (Simulation time: 3 hr 23 min 0 sec) 
Heartbeat CPU 0 instructions: 600000000 cycles: 776349494 heartbeat IPC: 0.630595 cumulative IPC: 0.723346 (Simulation time: 3 hr 25 min 30 sec) 
Heartbeat CPU 2 instructions: 340000003 cycles: 785341796 heartbeat IPC: 0.226057 cumulative IPC: 0.368059 (Simulation time: 3 hr 26 min 50 sec) 
Heartbeat CPU 3 instructions: 800000000 cycles: 787607482 heartbeat IPC: 0.270173 cumulative IPC: 0.970486 (Simulation time: 3 hr 27 min 12 sec) 
Heartbeat CPU 0 instructions: 610000000 cycles: 792943558 heartbeat IPC: 0.602625 cumulative IPC: 0.720767 (Simulation time: 3 hr 28 min 0 sec) 
Heartbeat CPU 0 instructions: 620000003 cycles: 810759291 heartbeat IPC: 0.561302 cumulative IPC: 0.717192 (Simulation time: 3 hr 30 min 48 sec) 
Heartbeat CPU 3 instructions: 810000001 cycles: 824136380 heartbeat IPC: 0.273756 cumulative IPC: 0.938988 (Simulation time: 3 hr 32 min 48 sec) 
Heartbeat CPU 2 instructions: 350000002 cycles: 826281896 heartbeat IPC: 0.244259 cumulative IPC: 0.361803 (Simulation time: 3 hr 33 min 9 sec) 
Heartbeat CPU 0 instructions: 630000003 cycles: 829917034 heartbeat IPC: 0.521982 cumulative IPC: 0.712596 (Simulation time: 3 hr 33 min 43 sec) 
Heartbeat CPU 0 instructions: 640000001 cycles: 850411236 heartbeat IPC: 0.487943 cumulative IPC: 0.707078 (Simulation time: 3 hr 37 min 1 sec) 
Heartbeat CPU 1 instructions: 150000000 cycles: 855262776 heartbeat IPC: 0.0869926 cumulative IPC: 0.119171 (Simulation time: 3 hr 37 min 48 sec) 
Heartbeat CPU 2 instructions: 360000003 cycles: 855666595 heartbeat IPC: 0.340313 cumulative IPC: 0.361051 (Simulation time: 3 hr 37 min 52 sec) 
Heartbeat CPU 3 instructions: 820000000 cycles: 858363909 heartbeat IPC: 0.292162 cumulative IPC: 0.912701 (Simulation time: 3 hr 38 min 17 sec) 
Heartbeat CPU 0 instructions: 650000000 cycles: 874377427 heartbeat IPC: 0.417254 cumulative IPC: 0.698984 (Simulation time: 3 hr 40 min 57 sec) 
Heartbeat CPU 2 instructions: 370000002 cycles: 881680949 heartbeat IPC: 0.384403 cumulative IPC: 0.361752 (Simulation time: 3 hr 42 min 11 sec) 
Heartbeat CPU 3 instructions: 830000003 cycles: 889919694 heartbeat IPC: 0.316899 cumulative IPC: 0.891185 (Simulation time: 3 hr 43 min 31 sec) 
Heartbeat CPU 0 instructions: 660000000 cycles: 900153939 heartbeat IPC: 0.38795 cumulative IPC: 0.689915 (Simulation time: 3 hr 45 min 7 sec) 
Heartbeat CPU 2 instructions: 380000002 cycles: 908380108 heartbeat IPC: 0.374544 cumulative IPC: 0.362135 (Simulation time: 3 hr 46 min 19 sec) 
Heartbeat CPU 3 instructions: 840000000 cycles: 921059451 heartbeat IPC: 0.321133 cumulative IPC: 0.871569 (Simulation time: 3 hr 48 min 25 sec) 
Heartbeat CPU 0 instructions: 670000002 cycles: 926604160 heartbeat IPC: 0.378069 cumulative IPC: 0.680856 (Simulation time: 3 hr 49 min 19 sec) 
Heartbeat CPU 0 instructions: 680000001 cycles: 938512819 heartbeat IPC: 0.839725 cumulative IPC: 0.682907 (Simulation time: 3 hr 51 min 40 sec) 
Heartbeat CPU 2 instructions: 390000000 cycles: 939940211 heartbeat IPC: 0.316856 cumulative IPC: 0.360588 (Simulation time: 3 hr 51 min 58 sec) 
Heartbeat CPU 1 instructions: 160000003 cycles: 950002258 heartbeat IPC: 0.105553 cumulative IPC: 0.117789 (Simulation time: 3 hr 53 min 54 sec) 
Heartbeat CPU 0 instructions: 690000003 cycles: 950929657 heartbeat IPC: 0.805358 cumulative IPC: 0.684533 (Simulation time: 3 hr 54 min 4 sec) 
Heartbeat CPU 3 instructions: 850000003 cycles: 952791720 heartbeat IPC: 0.315137 cumulative IPC: 0.852718 (Simulation time: 3 hr 54 min 24 sec) 
Heartbeat CPU 0 instructions: 700000000 cycles: 962926654 heartbeat IPC: 0.833542 cumulative IPC: 0.686422 (Simulation time: 3 hr 56 min 12 sec) 
Heartbeat CPU 0 instructions: 710000001 cycles: 975135265 heartbeat IPC: 0.819094 cumulative IPC: 0.688111 (Simulation time: 3 hr 58 min 28 sec) 
Heartbeat CPU 2 instructions: 400000000 cycles: 982919226 heartbeat IPC: 0.232672 cumulative IPC: 0.354902 (Simulation time: 3 hr 59 min 54 sec) 
Heartbeat CPU 3 instructions: 860000000 cycles: 985178902 heartbeat IPC: 0.308764 cumulative IPC: 0.834538 (Simulation time: 4 hr 0 min 21 sec) 
Heartbeat CPU 0 instructions: 720000000 cycles: 987756044 heartbeat IPC: 0.792344 cumulative IPC: 0.689464 (Simulation time: 4 hr 0 min 52 sec) 
Heartbeat CPU 0 instructions: 730000002 cycles: 999924571 heartbeat IPC: 0.821792 cumulative IPC: 0.691101 (Simulation time: 4 hr 3 min 0 sec) 
Heartbeat CPU 0 instructions: 740000003 cycles: 1012194729 heartbeat IPC: 0.814986 cumulative IPC: 0.692627 (Simulation time: 4 hr 5 min 17 sec) 
Heartbeat CPU 2 instructions: 410000003 cycles: 1015087698 heartbeat IPC: 0.310863 cumulative IPC: 0.353484 (Simulation time: 4 hr 5 min 51 sec) 
Heartbeat CPU 3 instructions: 870000003 cycles: 1017980349 heartbeat IPC: 0.304865 cumulative IPC: 0.817196 (Simulation time: 4 hr 6 min 21 sec) 
*** Reached end of trace for Core: 0 Repeating trace: ./traces/ligra/ligra_Components.com-lj.ungraph.gcc_6.3.0_O3.drop_15750M.length_250M.champsimtrace.xz
Heartbeat CPU 0 instructions: 750000000 cycles: 1024611972 heartbeat IPC: 0.805332 cumulative IPC: 0.694015 (Simulation time: 4 hr 7 min 30 sec) 
Heartbeat CPU 0 instructions: 760000002 cycles: 1039959792 heartbeat IPC: 0.651558 cumulative IPC: 0.693379 (Simulation time: 4 hr 10 min 18 sec) 
Heartbeat CPU 2 instructions: 420000000 cycles: 1042571640 heartbeat IPC: 0.363849 cumulative IPC: 0.353761 (Simulation time: 4 hr 10 min 55 sec) 
Heartbeat CPU 2 instructions: 430000002 cycles: 1053377646 heartbeat IPC: 0.925411 cumulative IPC: 0.359717 (Simulation time: 4 hr 13 min 27 sec) 
Heartbeat CPU 1 instructions: 170000003 cycles: 1054392331 heartbeat IPC: 0.0957946 cumulative IPC: 0.115578 (Simulation time: 4 hr 13 min 41 sec) 
Heartbeat CPU 0 instructions: 770000000 cycles: 1054561728 heartbeat IPC: 0.684841 cumulative IPC: 0.693258 (Simulation time: 4 hr 13 min 43 sec) 
Heartbeat CPU 3 instructions: 880000000 cycles: 1055537204 heartbeat IPC: 0.266263 cumulative IPC: 0.797289 (Simulation time: 4 hr 13 min 57 sec) 
Heartbeat CPU 2 instructions: 440000000 cycles: 1064341237 heartbeat IPC: 0.91211 cumulative IPC: 0.365494 (Simulation time: 4 hr 16 min 1 sec) 
Heartbeat CPU 0 instructions: 780000002 cycles: 1068741139 heartbeat IPC: 0.705248 cumulative IPC: 0.69342 (Simulation time: 4 hr 17 min 4 sec) 
Heartbeat CPU 2 instructions: 450000003 cycles: 1075653974 heartbeat IPC: 0.88396 cumulative IPC: 0.37103 (Simulation time: 4 hr 18 min 40 sec) 
Heartbeat CPU 0 instructions: 790000002 cycles: 1083103396 heartbeat IPC: 0.696269 cumulative IPC: 0.693458 (Simulation time: 4 hr 20 min 20 sec) 
Heartbeat CPU 2 instructions: 460000002 cycles: 1087666217 heartbeat IPC: 0.832484 cumulative IPC: 0.376203 (Simulation time: 4 hr 21 min 20 sec) 
Heartbeat CPU 3 instructions: 890000003 cycles: 1092702506 heartbeat IPC: 0.269068 cumulative IPC: 0.779054 (Simulation time: 4 hr 22 min 27 sec) 
Heartbeat CPU 0 instructions: 800000002 cycles: 1097321232 heartbeat IPC: 0.703342 cumulative IPC: 0.693588 (Simulation time: 4 hr 23 min 29 sec) 
Heartbeat CPU 2 instructions: 470000002 cycles: 1100245614 heartbeat IPC: 0.794951 cumulative IPC: 0.381062 (Simulation time: 4 hr 24 min 7 sec) 
Heartbeat CPU 0 instructions: 810000000 cycles: 1111510926 heartbeat IPC: 0.704737 cumulative IPC: 0.693733 (Simulation time: 4 hr 26 min 44 sec) 
Heartbeat CPU 2 instructions: 480000002 cycles: 1112586062 heartbeat IPC: 0.810343 cumulative IPC: 0.385893 (Simulation time: 4 hr 26 min 58 sec) 
Heartbeat CPU 2 instructions: 490000003 cycles: 1125055680 heartbeat IPC: 0.801949 cumulative IPC: 0.390572 (Simulation time: 4 hr 29 min 49 sec) 
Heartbeat CPU 0 instructions: 820000000 cycles: 1126089318 heartbeat IPC: 0.685947 cumulative IPC: 0.69363 (Simulation time: 4 hr 30 min 3 sec) 
Heartbeat CPU 3 instructions: 900000002 cycles: 1130091540 heartbeat IPC: 0.267458 cumulative IPC: 0.761883 (Simulation time: 4 hr 30 min 56 sec) 
Heartbeat CPU 2 instructions: 500000002 cycles: 1137399672 heartbeat IPC: 0.810111 cumulative IPC: 0.395191 (Simulation time: 4 hr 32 min 35 sec) 
Heartbeat CPU 0 instructions: 830000001 cycles: 1140465675 heartbeat IPC: 0.695587 cumulative IPC: 0.693655 (Simulation time: 4 hr 33 min 15 sec) 
Heartbeat CPU 2 instructions: 510000000 cycles: 1150143664 heartbeat IPC: 0.784683 cumulative IPC: 0.399568 (Simulation time: 4 hr 35 min 21 sec) 
Heartbeat CPU 0 instructions: 840000002 cycles: 1155452937 heartbeat IPC: 0.667233 cumulative IPC: 0.693308 (Simulation time: 4 hr 36 min 28 sec) 
Heartbeat CPU 2 instructions: 520000000 cycles: 1162673212 heartbeat IPC: 0.798113 cumulative IPC: 0.403923 (Simulation time: 4 hr 38 min 3 sec) 
Heartbeat CPU 3 instructions: 910000003 cycles: 1166115405 heartbeat IPC: 0.277594 cumulative IPC: 0.746712 (Simulation time: 4 hr 38 min 49 sec) 
Heartbeat CPU 1 instructions: 180000000 cycles: 1168509878 heartbeat IPC: 0.0876289 cumulative IPC: 0.11281 (Simulation time: 4 hr 39 min 21 sec) 
Heartbeat CPU 0 instructions: 850000001 cycles: 1170644429 heartbeat IPC: 0.658263 cumulative IPC: 0.692847 (Simulation time: 4 hr 39 min 49 sec) 
Heartbeat CPU 2 instructions: 530000001 cycles: 1175222231 heartbeat IPC: 0.796875 cumulative IPC: 0.408177 (Simulation time: 4 hr 40 min 50 sec) 
Heartbeat CPU 0 instructions: 860000002 cycles: 1186600574 heartbeat IPC: 0.626718 cumulative IPC: 0.691945 (Simulation time: 4 hr 43 min 14 sec) 
Heartbeat CPU 2 instructions: 540000000 cycles: 1188246456 heartbeat IPC: 0.7678 cumulative IPC: 0.412173 (Simulation time: 4 hr 43 min 34 sec) 
Heartbeat CPU 3 instructions: 920000002 cycles: 1199698311 heartbeat IPC: 0.297771 cumulative IPC: 0.733974 (Simulation time: 4 hr 46 min 3 sec) 
Heartbeat CPU 2 instructions: 550000000 cycles: 1201423829 heartbeat IPC: 0.758877 cumulative IPC: 0.416028 (Simulation time: 4 hr 46 min 26 sec) 
Heartbeat CPU 0 instructions: 870000001 cycles: 1203060196 heartbeat IPC: 0.607547 cumulative IPC: 0.690775 (Simulation time: 4 hr 46 min 45 sec) 
Heartbeat CPU 2 instructions: 560000000 cycles: 1214792075 heartbeat IPC: 0.748041 cumulative IPC: 0.419731 (Simulation time: 4 hr 49 min 9 sec) 
Heartbeat CPU 0 instructions: 880000000 cycles: 1221011618 heartbeat IPC: 0.557059 cumulative IPC: 0.688783 (Simulation time: 4 hr 50 min 20 sec) 
Heartbeat CPU 2 instructions: 570000002 cycles: 1227635224 heartbeat IPC: 0.778625 cumulative IPC: 0.423535 (Simulation time: 4 hr 51 min 42 sec) 
Heartbeat CPU 3 instructions: 930000002 cycles: 1231504281 heartbeat IPC: 0.314406 cumulative IPC: 0.722994 (Simulation time: 4 hr 52 min 32 sec) 
Heartbeat CPU 0 instructions: 890000000 cycles: 1240042619 heartbeat IPC: 0.525458 cumulative IPC: 0.686243 (Simulation time: 4 hr 54 min 18 sec) 
Heartbeat CPU 2 instructions: 580000000 cycles: 1240607948 heartbeat IPC: 0.770848 cumulative IPC: 0.427215 (Simulation time: 4 hr 54 min 25 sec) 
Heartbeat CPU 2 instructions: 590000003 cycles: 1253571170 heartbeat IPC: 0.771413 cumulative IPC: 0.430821 (Simulation time: 4 hr 57 min 6 sec) 
Heartbeat CPU 3 instructions: 940000002 cycles: 1260820630 heartbeat IPC: 0.341107 cumulative IPC: 0.713999 (Simulation time: 4 hr 58 min 35 sec) 
Heartbeat CPU 0 instructions: 900000003 cycles: 1262360389 heartbeat IPC: 0.448074 cumulative IPC: 0.681978 (Simulation time: 4 hr 58 min 54 sec) 
Heartbeat CPU 1 instructions: 190000000 cycles: 1262959710 heartbeat IPC: 0.105876 cumulative IPC: 0.112285 (Simulation time: 4 hr 59 min 1 sec) 
Heartbeat CPU 2 instructions: 600000003 cycles: 1266694990 heartbeat IPC: 0.761973 cumulative IPC: 0.434296 (Simulation time: 4 hr 59 min 51 sec) 
Heartbeat CPU 2 instructions: 610000000 cycles: 1280298417 heartbeat IPC: 0.735109 cumulative IPC: 0.437533 (Simulation time: 5 hr 2 min 35 sec) 
Heartbeat CPU 0 instructions: 910000001 cycles: 1285929107 heartbeat IPC: 0.424291 cumulative IPC: 0.677195 (Simulation time: 5 hr 3 min 44 sec) 
Heartbeat CPU 3 instructions: 950000003 cycles: 1288616517 heartbeat IPC: 0.359765 cumulative IPC: 0.706261 (Simulation time: 5 hr 4 min 17 sec) 
Heartbeat CPU 2 instructions: 620000001 cycles: 1293696614 heartbeat IPC: 0.746369 cumulative IPC: 0.440772 (Simulation time: 5 hr 5 min 17 sec) 
Heartbeat CPU 2 instructions: 630000000 cycles: 1307498523 heartbeat IPC: 0.724537 cumulative IPC: 0.443805 (Simulation time: 5 hr 8 min 13 sec) 
Heartbeat CPU 0 instructions: 920000001 cycles: 1309454879 heartbeat IPC: 0.425066 cumulative IPC: 0.672609 (Simulation time: 5 hr 8 min 39 sec) 
Heartbeat CPU 3 instructions: 960000002 cycles: 1315516893 heartbeat IPC: 0.371742 cumulative IPC: 0.699336 (Simulation time: 5 hr 10 min 12 sec) 
Heartbeat CPU 0 instructions: 930000000 cycles: 1320838079 heartbeat IPC: 0.878488 cumulative IPC: 0.674405 (Simulation time: 5 hr 11 min 29 sec) 
Heartbeat CPU 2 instructions: 640000000 cycles: 1321006350 heartbeat IPC: 0.740312 cumulative IPC: 0.446874 (Simulation time: 5 hr 11 min 31 sec) 
Heartbeat CPU 0 instructions: 940000002 cycles: 1332534069 heartbeat IPC: 0.854994 cumulative IPC: 0.676009 (Simulation time: 5 hr 14 min 21 sec) 
Heartbeat CPU 2 instructions: 650000000 cycles: 1334521467 heartbeat IPC: 0.739912 cumulative IPC: 0.449878 (Simulation time: 5 hr 14 min 51 sec) 
Heartbeat CPU 1 instructions: 200000000 cycles: 1340333570 heartbeat IPC: 0.129243 cumulative IPC: 0.113276 (Simulation time: 5 hr 16 min 13 sec) 
Heartbeat CPU 0 instructions: 950000003 cycles: 1344381389 heartbeat IPC: 0.844073 cumulative IPC: 0.677508 (Simulation time: 5 hr 17 min 16 sec) 
Heartbeat CPU 3 instructions: 970000001 cycles: 1345387800 heartbeat IPC: 0.334774 cumulative IPC: 0.691144 (Simulation time: 5 hr 17 min 31 sec) 
Heartbeat CPU 2 instructions: 660000000 cycles: 1348354716 heartbeat IPC: 0.722896 cumulative IPC: 0.452713 (Simulation time: 5 hr 18 min 13 sec) 
Heartbeat CPU 0 instructions: 960000000 cycles: 1356111458 heartbeat IPC: 0.85251 cumulative IPC: 0.67904 (Simulation time: 5 hr 20 min 6 sec) 
Heartbeat CPU 2 instructions: 670000001 cycles: 1362321496 heartbeat IPC: 0.715985 cumulative IPC: 0.455444 (Simulation time: 5 hr 21 min 39 sec) 
Heartbeat CPU 0 instructions: 970000003 cycles: 1367782757 heartbeat IPC: 0.856803 cumulative IPC: 0.680575 (Simulation time: 5 hr 22 min 59 sec) 
Heartbeat CPU 3 instructions: 980000002 cycles: 1374972583 heartbeat IPC: 0.338012 cumulative IPC: 0.683455 (Simulation time: 5 hr 24 min 46 sec) 
Heartbeat CPU 2 instructions: 680000000 cycles: 1376139105 heartbeat IPC: 0.723714 cumulative IPC: 0.45817 (Simulation time: 5 hr 25 min 3 sec) 
Heartbeat CPU 0 instructions: 980000002 cycles: 1379582146 heartbeat IPC: 0.847501 cumulative IPC: 0.68202 (Simulation time: 5 hr 25 min 49 sec) 
Heartbeat CPU 2 instructions: 690000002 cycles: 1390143901 heartbeat IPC: 0.714041 cumulative IPC: 0.460778 (Simulation time: 5 hr 28 min 34 sec) 
Heartbeat CPU 0 instructions: 990000000 cycles: 1391183995 heartbeat IPC: 0.861931 cumulative IPC: 0.683538 (Simulation time: 5 hr 28 min 49 sec) 
*** Reached end of trace for Core: 0 Repeating trace: ./traces/ligra/ligra_Components.com-lj.ungraph.gcc_6.3.0_O3.drop_15750M.length_250M.champsimtrace.xz
Heartbeat CPU 0 instructions: 1000000001 cycles: 1402986481 heartbeat IPC: 0.847279 cumulative IPC: 0.684931 (Simulation time: 5 hr 31 min 43 sec) 
Heartbeat CPU 2 instructions: 700000003 cycles: 1404258316 heartbeat IPC: 0.708496 cumulative IPC: 0.463297 (Simulation time: 5 hr 32 min 0 sec) 
Heartbeat CPU 3 instructions: 990000000 cycles: 1404711322 heartbeat IPC: 0.336262 cumulative IPC: 0.67602 (Simulation time: 5 hr 32 min 6 sec) 
Heartbeat CPU 0 instructions: 1010000003 cycles: 1417252960 heartbeat IPC: 0.700944 cumulative IPC: 0.685094 (Simulation time: 5 hr 34 min 51 sec) 
Heartbeat CPU 2 instructions: 710000001 cycles: 1418359221 heartbeat IPC: 0.709174 cumulative IPC: 0.465769 (Simulation time: 5 hr 35 min 5 sec) 
Heartbeat CPU 1 instructions: 210000003 cycles: 1429575203 heartbeat IPC: 0.112055 cumulative IPC: 0.113199 (Simulation time: 5 hr 37 min 29 sec) 
Heartbeat CPU 0 instructions: 1020000003 cycles: 1431709670 heartbeat IPC: 0.69172 cumulative IPC: 0.685162 (Simulation time: 5 hr 37 min 58 sec) 
Heartbeat CPU 2 instructions: 720000002 cycles: 1432455729 heartbeat IPC: 0.709396 cumulative IPC: 0.468194 (Simulation time: 5 hr 38 min 8 sec) 
Heartbeat CPU 3 instructions: 1000000002 cycles: 1442710835 heartbeat IPC: 0.263161 cumulative IPC: 0.665022 (Simulation time: 5 hr 40 min 23 sec) 
Heartbeat CPU 0 instructions: 1030000001 cycles: 1446129301 heartbeat IPC: 0.693499 cumulative IPC: 0.685246 (Simulation time: 5 hr 41 min 7 sec) 
Heartbeat CPU 2 instructions: 730000001 cycles: 1446785724 heartbeat IPC: 0.697837 cumulative IPC: 0.470494 (Simulation time: 5 hr 41 min 15 sec) 
Heartbeat CPU 0 instructions: 1040000001 cycles: 1460772810 heartbeat IPC: 0.682896 cumulative IPC: 0.685222 (Simulation time: 5 hr 44 min 16 sec) 
Heartbeat CPU 2 instructions: 740000003 cycles: 1461044831 heartbeat IPC: 0.701306 cumulative IPC: 0.472772 (Simulation time: 5 hr 44 min 20 sec) 
Heartbeat CPU 0 instructions: 1050000002 cycles: 1475137035 heartbeat IPC: 0.696174 cumulative IPC: 0.68533 (Simulation time: 5 hr 47 min 16 sec) 
Heartbeat CPU 2 instructions: 750000001 cycles: 1475223695 heartbeat IPC: 0.705275 cumulative IPC: 0.475031 (Simulation time: 5 hr 47 min 18 sec) 
Heartbeat CPU 3 instructions: 1010000001 cycles: 1480214246 heartbeat IPC: 0.266642 cumulative IPC: 0.654818 (Simulation time: 5 hr 48 min 19 sec) 
Heartbeat CPU 2 instructions: 760000003 cycles: 1489424402 heartbeat IPC: 0.70419 cumulative IPC: 0.47724 (Simulation time: 5 hr 50 min 16 sec) 
Heartbeat CPU 0 instructions: 1060000001 cycles: 1489455369 heartbeat IPC: 0.698405 cumulative IPC: 0.685457 (Simulation time: 5 hr 50 min 16 sec) 
Heartbeat CPU 2 instructions: 770000000 cycles: 1503526596 heartbeat IPC: 0.709109 cumulative IPC: 0.479438 (Simulation time: 5 hr 53 min 23 sec) 
Heartbeat CPU 0 instructions: 1070000000 cycles: 1503952866 heartbeat IPC: 0.689774 cumulative IPC: 0.685499 (Simulation time: 5 hr 53 min 28 sec) 
Heartbeat CPU 2 instructions: 780000001 cycles: 1517907709 heartbeat IPC: 0.695357 cumulative IPC: 0.481506 (Simulation time: 5 hr 56 min 33 sec) 
Heartbeat CPU 0 instructions: 1080000000 cycles: 1518358964 heartbeat IPC: 0.694151 cumulative IPC: 0.685582 (Simulation time: 5 hr 56 min 39 sec) 
Heartbeat CPU 3 instructions: 1020000002 cycles: 1530709818 heartbeat IPC: 0.198037 cumulative IPC: 0.639589 (Simulation time: 5 hr 59 min 15 sec) 
Heartbeat CPU 0 instructions: 1090000001 cycles: 1531828766 heartbeat IPC: 0.742401 cumulative IPC: 0.686087 (Simulation time: 5 hr 59 min 29 sec) 
Heartbeat CPU 2 instructions: 790000003 cycles: 1532053113 heartbeat IPC: 0.706944 cumulative IPC: 0.48361 (Simulation time: 5 hr 59 min 32 sec) 
Heartbeat CPU 3 instructions: 1030000002 cycles: 1542964328 heartbeat IPC: 0.816026 cumulative IPC: 0.641005 (Simulation time: 6 hr 2 min 42 sec) 
Heartbeat CPU 1 instructions: 220000000 cycles: 1544661294 heartbeat IPC: 0.0868914 cumulative IPC: 0.111218 (Simulation time: 6 hr 3 min 16 sec) 
Heartbeat CPU 0 instructions: 1100000000 cycles: 1546297750 heartbeat IPC: 0.691133 cumulative IPC: 0.686135 (Simulation time: 6 hr 3 min 39 sec) 
Heartbeat CPU 2 instructions: 800000001 cycles: 1546347647 heartbeat IPC: 0.699568 cumulative IPC: 0.485627 (Simulation time: 6 hr 3 min 40 sec) 
Heartbeat CPU 3 instructions: 1040000003 cycles: 1554126996 heartbeat IPC: 0.895843 cumulative IPC: 0.642854 (Simulation time: 6 hr 5 min 53 sec) 
Heartbeat CPU 2 instructions: 810000003 cycles: 1560686952 heartbeat IPC: 0.697384 cumulative IPC: 0.487593 (Simulation time: 6 hr 7 min 42 sec) 
Heartbeat CPU 0 instructions: 1110000003 cycles: 1561526477 heartbeat IPC: 0.656654 cumulative IPC: 0.685844 (Simulation time: 6 hr 7 min 54 sec) 
Heartbeat CPU 3 instructions: 1050000000 cycles: 1564465036 heartbeat IPC: 0.967301 cumulative IPC: 0.645021 (Simulation time: 6 hr 8 min 43 sec) 
Heartbeat CPU 3 instructions: 1060000003 cycles: 1574778279 heartbeat IPC: 0.969627 cumulative IPC: 0.647169 (Simulation time: 6 hr 11 min 31 sec) 
Heartbeat CPU 2 instructions: 820000000 cycles: 1574979658 heartbeat IPC: 0.699657 cumulative IPC: 0.489537 (Simulation time: 6 hr 11 min 34 sec) 
Heartbeat CPU 0 instructions: 1120000000 cycles: 1577233725 heartbeat IPC: 0.636649 cumulative IPC: 0.685349 (Simulation time: 6 hr 12 min 7 sec) 
Heartbeat CPU 3 instructions: 1070000001 cycles: 1585637243 heartbeat IPC: 0.920898 cumulative IPC: 0.649062 (Simulation time: 6 hr 14 min 31 sec) 
Heartbeat CPU 2 instructions: 830000001 cycles: 1589360037 heartbeat IPC: 0.695392 cumulative IPC: 0.491419 (Simulation time: 6 hr 15 min 31 sec) 
Heartbeat CPU 0 instructions: 1130000001 cycles: 1594204844 heartbeat IPC: 0.589236 cumulative IPC: 0.684316 (Simulation time: 6 hr 16 min 52 sec) 
Heartbeat CPU 3 instructions: 1080000002 cycles: 1594477854 heartbeat IPC: 1.13114 cumulative IPC: 0.651763 (Simulation time: 6 hr 16 min 57 sec) 
Heartbeat CPU 2 instructions: 840000002 cycles: 1603740459 heartbeat IPC: 0.69539 cumulative IPC: 0.493267 (Simulation time: 6 hr 19 min 20 sec) 
Heartbeat CPU 3 instructions: 1090000001 cycles: 1605655035 heartbeat IPC: 0.89468 cumulative IPC: 0.653471 (Simulation time: 6 hr 19 min 50 sec) 
Heartbeat CPU 0 instructions: 1140000003 cycles: 1612086198 heartbeat IPC: 0.559242 cumulative IPC: 0.682914 (Simulation time: 6 hr 21 min 34 sec) 
Heartbeat CPU 3 instructions: 1100000000 cycles: 1614256959 heartbeat IPC: 1.16253 cumulative IPC: 0.656211 (Simulation time: 6 hr 22 min 13 sec) 
Heartbeat CPU 2 instructions: 850000003 cycles: 1618138552 heartbeat IPC: 0.694537 cumulative IPC: 0.495075 (Simulation time: 6 hr 23 min 9 sec) 
Heartbeat CPU 1 instructions: 230000001 cycles: 1624589240 heartbeat IPC: 0.125113 cumulative IPC: 0.111908 (Simulation time: 6 hr 24 min 51 sec) 
Heartbeat CPU 3 instructions: 1110000003 cycles: 1624648416 heartbeat IPC: 0.962329 cumulative IPC: 0.658188 (Simulation time: 6 hr 24 min 52 sec) 
Heartbeat CPU 2 instructions: 860000002 cycles: 1632649497 heartbeat IPC: 0.689135 cumulative IPC: 0.496817 (Simulation time: 6 hr 27 min 0 sec) 
Heartbeat CPU 0 instructions: 1150000002 cycles: 1633136821 heartbeat IPC: 0.475045 cumulative IPC: 0.680208 (Simulation time: 6 hr 27 min 7 sec) 
Heartbeat CPU 3 instructions: 1120000000 cycles: 1633146823 heartbeat IPC: 1.17669 cumulative IPC: 0.660913 (Simulation time: 6 hr 27 min 8 sec) 
Heartbeat CPU 3 instructions: 1130000002 cycles: 1642925197 heartbeat IPC: 1.02267 cumulative IPC: 0.663088 (Simulation time: 6 hr 29 min 40 sec) 
Heartbeat CPU 2 instructions: 870000001 cycles: 1647184454 heartbeat IPC: 0.687996 cumulative IPC: 0.498521 (Simulation time: 6 hr 30 min 55 sec) 
Heartbeat CPU 3 instructions: 1140000003 cycles: 1650870124 heartbeat IPC: 1.25866 cumulative IPC: 0.665982 (Simulation time: 6 hr 31 min 58 sec) 
Heartbeat CPU 0 instructions: 1160000000 cycles: 1654504365 heartbeat IPC: 0.467999 cumulative IPC: 0.677441 (Simulation time: 6 hr 32 min 55 sec) 
Heartbeat CPU 3 instructions: 1150000001 cycles: 1660052119 heartbeat IPC: 1.08909 cumulative IPC: 0.668346 (Simulation time: 6 hr 34 min 28 sec) 
Heartbeat CPU 2 instructions: 880000000 cycles: 1661744891 heartbeat IPC: 0.686792 cumulative IPC: 0.500187 (Simulation time: 6 hr 34 min 53 sec) 
Heartbeat CPU 3 instructions: 1160000002 cycles: 1668866942 heartbeat IPC: 1.13445 cumulative IPC: 0.670832 (Simulation time: 6 hr 36 min 47 sec) 
Heartbeat CPU 0 instructions: 1170000001 cycles: 1676149811 heartbeat IPC: 0.461991 cumulative IPC: 0.674631 (Simulation time: 6 hr 38 min 49 sec) 
Heartbeat CPU 2 instructions: 890000000 cycles: 1676356359 heartbeat IPC: 0.684394 cumulative IPC: 0.501808 (Simulation time: 6 hr 38 min 54 sec) 
Heartbeat CPU 3 instructions: 1170000003 cycles: 1677741443 heartbeat IPC: 1.12682 cumulative IPC: 0.673267 (Simulation time: 6 hr 39 min 19 sec) 
Heartbeat CPU 3 instructions: 1180000002 cycles: 1686774404 heartbeat IPC: 1.10706 cumulative IPC: 0.675612 (Simulation time: 6 hr 42 min 4 sec) 
Heartbeat CPU 0 instructions: 1180000001 cycles: 1687138001 heartbeat IPC: 0.910068 cumulative IPC: 0.67618 (Simulation time: 6 hr 42 min 11 sec) 
Heartbeat CPU 2 instructions: 900000001 cycles: 1690938649 heartbeat IPC: 0.685763 cumulative IPC: 0.50341 (Simulation time: 6 hr 43 min 26 sec) 
Heartbeat CPU 1 instructions: 240000000 cycles: 1693931622 heartbeat IPC: 0.144212 cumulative IPC: 0.113243 (Simulation time: 6 hr 44 min 28 sec) 
Heartbeat CPU 3 instructions: 1190000000 cycles: 1694831835 heartbeat IPC: 1.24109 cumulative IPC: 0.678327 (Simulation time: 6 hr 44 min 43 sec) 
Heartbeat CPU 0 instructions: 1190000002 cycles: 1698123625 heartbeat IPC: 0.910281 cumulative IPC: 0.677709 (Simulation time: 6 hr 45 min 41 sec) 
Heartbeat CPU 3 instructions: 1200000003 cycles: 1704243068 heartbeat IPC: 1.06256 cumulative IPC: 0.680469 (Simulation time: 6 hr 47 min 42 sec) 
Heartbeat CPU 2 instructions: 910000000 cycles: 1705414956 heartbeat IPC: 0.690784 cumulative IPC: 0.505016 (Simulation time: 6 hr 48 min 7 sec) 
Heartbeat CPU 0 instructions: 1200000002 cycles: 1709175111 heartbeat IPC: 0.904856 cumulative IPC: 0.679191 (Simulation time: 6 hr 49 min 14 sec) 
Heartbeat CPU 3 instructions: 1210000000 cycles: 1712395164 heartbeat IPC: 1.22668 cumulative IPC: 0.683094 (Simulation time: 6 hr 50 min 24 sec) 
Heartbeat CPU 2 instructions: 920000001 cycles: 1719961664 heartbeat IPC: 0.687441 cumulative IPC: 0.506573 (Simulation time: 6 hr 52 min 48 sec) 
Heartbeat CPU 0 instructions: 1210000000 cycles: 1720275664 heartbeat IPC: 0.900856 cumulative IPC: 0.680635 (Simulation time: 6 hr 52 min 54 sec) 
Heartbeat CPU 3 instructions: 1220000000 cycles: 1722250634 heartbeat IPC: 1.01467 cumulative IPC: 0.685009 (Simulation time: 6 hr 53 min 30 sec) 
Heartbeat CPU 3 instructions: 1230000000 cycles: 1730624132 heartbeat IPC: 1.19424 cumulative IPC: 0.687496 (Simulation time: 6 hr 56 min 15 sec) 
Heartbeat CPU 0 instructions: 1220000000 cycles: 1731095520 heartbeat IPC: 0.924227 cumulative IPC: 0.682172 (Simulation time: 6 hr 56 min 24 sec) 
Heartbeat CPU 2 instructions: 930000001 cycles: 1734525537 heartbeat IPC: 0.686631 cumulative IPC: 0.508099 (Simulation time: 6 hr 57 min 22 sec) 
Heartbeat CPU 3 instructions: 1240000002 cycles: 1740415326 heartbeat IPC: 1.02133 cumulative IPC: 0.689392 (Simulation time: 6 hr 59 min 11 sec) 
Heartbeat CPU 0 instructions: 1230000002 cycles: 1742149796 heartbeat IPC: 0.904628 cumulative IPC: 0.683597 (Simulation time: 6 hr 59 min 45 sec) 
Heartbeat CPU 3 instructions: 1250000000 cycles: 1748897158 heartbeat IPC: 1.17899 cumulative IPC: 0.691788 (Simulation time: 7 hr 1 min 48 sec) 
Heartbeat CPU 2 instructions: 940000003 cycles: 1749059203 heartbeat IPC: 0.688058 cumulative IPC: 0.509608 (Simulation time: 7 hr 1 min 51 sec) 
Heartbeat CPU 0 instructions: 1240000000 cycles: 1753203388 heartbeat IPC: 0.904683 cumulative IPC: 0.685004 (Simulation time: 7 hr 3 min 0 sec) 
Heartbeat CPU 3 instructions: 1260000002 cycles: 1758843842 heartbeat IPC: 1.00536 cumulative IPC: 0.693578 (Simulation time: 7 hr 4 min 47 sec) 
Heartbeat CPU 2 instructions: 950000003 cycles: 1763665619 heartbeat IPC: 0.684631 cumulative IPC: 0.511071 (Simulation time: 7 hr 6 min 21 sec) 
*** Reached end of trace for Core: 0 Repeating trace: ./traces/ligra/ligra_Components.com-lj.ungraph.gcc_6.3.0_O3.drop_15750M.length_250M.champsimtrace.xz
Heartbeat CPU 0 instructions: 1250000001 cycles: 1764228233 heartbeat IPC: 0.907042 cumulative IPC: 0.686404 (Simulation time: 7 hr 6 min 30 sec) 
Heartbeat CPU 3 instructions: 1270000003 cycles: 1767756305 heartbeat IPC: 1.12202 cumulative IPC: 0.695758 (Simulation time: 7 hr 7 min 32 sec) 
*** Reached end of trace for Core: 1 Repeating trace: ./traces/ligra/ligra_PageRank.com-lj.ungraph.gcc_6.3.0_O3.drop_21750M.length_250M.champsimtrace.xz
Heartbeat CPU 1 instructions: 250000001 cycles: 1770066147 heartbeat IPC: 0.131346 cumulative IPC: 0.114029 (Simulation time: 7 hr 8 min 11 sec) 
Finished CPU 1 instructions: 200000002 cycles: 1753936332 cumulative IPC: 0.114029 (Simulation time: 7 hr 8 min 11 sec) 

ChampSim completed all CPUs

Total Simulation Statistics (not including warmup)

CPU 0 cumulative IPC: 0.686553 instructions: 1204170389 cycles: 1753936332
ITLB TOTAL     ACCESS:  199735016  HIT:  199734996  MISS:         20  HIT %:        100  MISS %: 1.00133e-05   MPKI: 1.66089e-05
ITLB LOAD      ACCESS:          0  HIT:          0  MISS:          0  HIT %:       -nan  MISS %:       -nan   MPKI: 0
ITLB RFO       ACCESS:          0  HIT:          0  MISS:          0  HIT %:       -nan  MISS %:       -nan   MPKI: 0
ITLB PREFETCH  ACCESS:          0  HIT:          0  MISS:          0  HIT %:       -nan  MISS %:       -nan   MPKI: 0
ITLB WRITEBACK ACCESS:          0  HIT:          0  MISS:          0  HIT %:       -nan  MISS %:       -nan   MPKI: 0
DTLB TOTAL     ACCESS:  242869504  HIT:  242469185  MISS:     400319  HIT %:    99.8352  MISS %:   0.164829   MPKI: 0.332444
DTLB LOAD      ACCESS:          0  HIT:          0  MISS:          0  HIT %:       -nan  MISS %:       -nan   MPKI: 0
DTLB RFO       ACCESS:          0  HIT:          0  MISS:          0  HIT %:       -nan  MISS %:       -nan   MPKI: 0
DTLB PREFETCH  ACCESS:          0  HIT:          0  MISS:          0  HIT %:       -nan  MISS %:       -nan   MPKI: 0
DTLB WRITEBACK ACCESS:          0  HIT:          0  MISS:          0  HIT %:       -nan  MISS %:       -nan   MPKI: 0
STLB TOTAL     ACCESS:   11365724  HIT:   10967657  MISS:     398067  HIT %:    96.4977  MISS %:    3.50235   MPKI: 0.330574
STLB LOAD      ACCESS:          0  HIT:          0  MISS:          0  HIT %:       -nan  MISS %:       -nan   MPKI: 0
STLB RFO       ACCESS:          0  HIT:          0  MISS:          0  HIT %:       -nan  MISS %:       -nan   MPKI: 0
STLB PREFETCH  ACCESS:          0  HIT:          0  MISS:          0  HIT %:       -nan  MISS %:       -nan   MPKI: 0
STLB WRITEBACK ACCESS:          0  HIT:          0  MISS:          0  HIT %:       -nan  MISS %:       -nan   MPKI: 0
L1D TOTAL     ACCESS:  183762513  HIT:  156104522  MISS:   27657991  HIT %:    84.9491  MISS %:    15.0509   MPKI: 22.9685
L1D LOAD      ACCESS:  109477718  HIT:  105728447  MISS:    3749271  HIT %:    96.5753  MISS %:    3.42469   MPKI: 3.11357
L1D RFO       ACCESS:   61992389  HIT:   50356391  MISS:   11635998  HIT %:      81.23  MISS %:      18.77   MPKI: 9.66308
L1D PREFETCH  ACCESS:   12292406  HIT:      19684  MISS:   12272722  HIT %:   0.160131  MISS %:    99.8399   MPKI: 10.1918
L1D WRITEBACK ACCESS:          0  HIT:          0  MISS:          0  HIT %:       -nan  MISS %:       -nan   MPKI: 0
L1I TOTAL     ACCESS:  202139540  HIT:  202139394  MISS:        146  HIT %:    99.9999  MISS %: 7.22273e-05   MPKI: 0.000121245
L1I LOAD      ACCESS:  202139540  HIT:  202139394  MISS:        146  HIT %:    99.9999  MISS %: 7.22273e-05   MPKI: 0.000121245
L1I RFO       ACCESS:          0  HIT:          0  MISS:          0  HIT %:       -nan  MISS %:       -nan   MPKI: 0
L1I PREFETCH  ACCESS:          0  HIT:          0  MISS:          0  HIT %:       -nan  MISS %:       -nan   MPKI: 0
L1I WRITEBACK ACCESS:          0  HIT:          0  MISS:          0  HIT %:       -nan  MISS %:       -nan   MPKI: 0
L2C TOTAL     ACCESS:   39706099  HIT:   13530965  MISS:   26175134  HIT %:    34.0778  MISS %:    65.9222   MPKI: 21.7371
L2C LOAD      ACCESS:    2155610  HIT:    1561786  MISS:     593824  HIT %:    72.4522  MISS %:    27.5478   MPKI: 0.49314
L2C RFO       ACCESS:   11634587  HIT:     303791  MISS:   11330796  HIT %:     2.6111  MISS %:    97.3889   MPKI: 9.40963
L2C PREFETCH  ACCESS:   13868688  HIT:       1035  MISS:   13867653  HIT %: 0.00746285  MISS %:    99.9925   MPKI: 11.5164
L2C WRITEBACK ACCESS:   11648386  HIT:   11318015  MISS:     330371  HIT %:    97.1638  MISS %:     2.8362   MPKI: 0.274356
PSCL5 TOTAL     ACCESS:     398067  HIT:     398067  MISS:          0  HIT %:        100  MISS %:          0   MPKI: 0
PSCL5 LOAD      ACCESS:          0  HIT:          0  MISS:          0  HIT %:       -nan  MISS %:       -nan   MPKI: 0
PSCL5 RFO       ACCESS:          0  HIT:          0  MISS:          0  HIT %:       -nan  MISS %:       -nan   MPKI: 0
PSCL5 PREFETCH  ACCESS:          0  HIT:          0  MISS:          0  HIT %:       -nan  MISS %:       -nan   MPKI: 0
PSCL5 WRITEBACK ACCESS:          0  HIT:          0  MISS:          0  HIT %:       -nan  MISS %:       -nan   MPKI: 0
PSCL4 TOTAL     ACCESS:     398067  HIT:     398066  MISS:          1  HIT %:    99.9997  MISS %: 0.000251214   MPKI: 8.30447e-07
PSCL4 LOAD      ACCESS:          0  HIT:          0  MISS:          0  HIT %:       -nan  MISS %:       -nan   MPKI: 0
PSCL4 RFO       ACCESS:          0  HIT:          0  MISS:          0  HIT %:       -nan  MISS %:       -nan   MPKI: 0
PSCL4 PREFETCH  ACCESS:          0  HIT:          0  MISS:          0  HIT %:       -nan  MISS %:       -nan   MPKI: 0
PSCL4 WRITEBACK ACCESS:          0  HIT:          0  MISS:          0  HIT %:       -nan  MISS %:       -nan   MPKI: 0
PSCL3 TOTAL     ACCESS:     398067  HIT:     398066  MISS:          1  HIT %:    99.9997  MISS %: 0.000251214   MPKI: 8.30447e-07
PSCL3 LOAD      ACCESS:          0  HIT:          0  MISS:          0  HIT %:       -nan  MISS %:       -nan   MPKI: 0
PSCL3 RFO       ACCESS:          0  HIT:          0  MISS:          0  HIT %:       -nan  MISS %:       -nan   MPKI: 0
PSCL3 PREFETCH  ACCESS:          0  HIT:          0  MISS:          0  HIT %:       -nan  MISS %:       -nan   MPKI: 0
PSCL3 WRITEBACK ACCESS:          0  HIT:          0  MISS:          0  HIT %:       -nan  MISS %:       -nan   MPKI: 0
PSCL2 TOTAL     ACCESS:     398067  HIT:     397158  MISS:        909  HIT %:    99.7716  MISS %:   0.228354   MPKI: 0.000754877
PSCL2 LOAD      ACCESS:          0  HIT:          0  MISS:          0  HIT %:       -nan  MISS %:       -nan   MPKI: 0
PSCL2 RFO       ACCESS:          0  HIT:          0  MISS:          0  HIT %:       -nan  MISS %:       -nan   MPKI: 0
PSCL2 PREFETCH  ACCESS:          0  HIT:          0  MISS:          0  HIT %:       -nan  MISS %:       -nan   MPKI: 0
PSCL2 WRITEBACK ACCESS:          0  HIT:          0  MISS:          0  HIT %:       -nan  MISS %:       -nan   MPKI: 0
=== CPU 0 L1D Prefetcher Statistics ===
[MLOP] History of tracked zone:
IIIIIIIIIIIIIIIIIIIIIIIIIIIIIIIIIIIIIIIIIIIIIIIIIIIIIIIIIIIIIIII
A111111IIIIIIIIIIIIIIIIIIIIIIIIIIIIIIIIIIIIIIIIIIIIIIIIIIIIIIIII
AA111111IIIIIIIIIIIIIIIIIIIIIIIIIIIIIIIIIIIIIIIIIIIIIIIIIIIIIIII
AAA111111IIIIIIIIIIIIIIIIIIIIIIIIIIIIIIIIIIIIIIIIIIIIIIIIIIIIIII
AAAA111111IIIIIIIIIIIIIIIIIIIIIIIIIIIIIIIIIIIIIIIIIIIIIIIIIIIIII
AAAAA111111IIIIIIIIIIIIIIIIIIIIIIIIIIIIIIIIIIIIIIIIIIIIIIIIIIIII
AAAAAA111111IIIIIIIIIIIIIIIIIIIIIIIIIIIIIIIIIIIIIIIIIIIIIIIIIIII
AAAAAAA111111IIIIIIIIIIIIIIIIIIIIIIIIIIIIIIIIIIIIIIIIIIIIIIIIIII
AAAAAAAA111111IIIIIIIIIIIIIIIIIIIIIIIIIIIIIIIIIIIIIIIIIIIIIIIIII
AAAAAAAAA111111IIIIIIIIIIIIIIIIIIIIIIIIIIIIIIIIIIIIIIIIIIIIIIIII
AAAAAAAAAA111111IIIIIIIIIIIIIIIIIIIIIIIIIIIIIIIIIIIIIIIIIIIIIIII
AAAAAAAAAAA111111IIIIIIIIIIIIIIIIIIIIIIIIIIIIIIIIIIIIIIIIIIIIIII
AAAAAAAAAAAA111111IIIIIIIIIIIIIIIIIIIIIIIIIIIIIIIIIIIIIIIIIIIIII
AAAAAAAAAAAAA111111IIIIIIIIIIIIIIIIIIIIIIIIIIIIIIIIIIIIIIIIIIIII
AAAAAAAAAAAAAA111111IIIIIIIIIIIIIIIIIIIIIIIIIIIIIIIIIIIIIIIIIIII
AAAAAAAAAAAAAAA111111IIIIIIIIIIIIIIIIIIIIIIIIIIIIIIIIIIIIIIIIIII
AAAAAAAAAAAAAAAA111111IIIIIIIIIIIIIIIIIIIIIIIIIIIIIIIIIIIIIIIIII
AAAAAAAAAAAAAAAAA111111IIIIIIIIIIIIIIIIIIIIIIIIIIIIIIIIIIIIIIIII
AAAAAAAAAAAAAAAAAA111111IIIIIIIIIIIIIIIIIIIIIIIIIIIIIIIIIIIIIIII
AAAAAAAAAAAAAAAAAAA111111IIIIIIIIIIIIIIIIIIIIIIIIIIIIIIIIIIIIIII
AAAAAAAAAAAAAAAAAAAA111111IIIIIIIIIIIIIIIIIIIIIIIIIIIIIIIIIIIIII
AAAAAAAAAAAAAAAAAAAAA111111IIIIIIIIIIIIIIIIIIIIIIIIIIIIIIIIIIIII
AAAAAAAAAAAAAAAAAAAAAA111111IIIIIIIIIIIIIIIIIIIIIIIIIIIIIIIIIIII
AAAAAAAAAAAAAAAAAAAAAAA111111IIIIIIIIIIIIIIIIIIIIIIIIIIIIIIIIIII
AAAAAAAAAAAAAAAAAAAAAAAA111111IIIIIIIIIIIIIIIIIIIIIIIIIIIIIIIIII
AAAAAAAAAAAAAAAAAAAAAAAAA111111IIIIIIIIIIIIIIIIIIIIIIIIIIIIIIIII
AAAAAAAAAAAAAAAAAAAAAAAAAA111111IIIIIIIIIIIIIIIIIIIIIIIIIIIIIIII
AAAAAAAAAAAAAAAAAAAAAAAAAAA111111IIIIIIIIIIIIIIIIIIIIIIIIIIIIIII
AAAAAAAAAAAAAAAAAAAAAAAAAAAA111111IIIIIIIIIIIIIIIIIIIIIIIIIIIIII
AAAAAAAAAAAAAAAAAAAAAAAAAAAAA111111IIIIIIIIIIIIIIIIIIIIIIIIIIIII
AAAAAAAAAAAAAAAAAAAAAAAAAAAAAA111111IIIIIIIIIIIIIIIIIIIIIIIIIIII
AAAAAAAAAAAAAAAAAAAAAAAAAAAAAAA111111IIIIIIIIIIIIIIIIIIIIIIIIIII
AAAAAAAAAAAAAAAAAAAAAAAAAAAAAAAA111111IIIIIIIIIIIIIIIIIIIIIIIIII
AAAAAAAAAAAAAAAAAAAAAAAAAAAAAAAAA111111IIIIIIIIIIIIIIIIIIIIIIIII
AAAAAAAAAAAAAAAAAAAAAAAAAAAAAAAAAA111111IIIIIIIIIIIIIIIIIIIIIIII
AAAAAAAAAAAAAAAAAAAAAAAAAAAAAAAAAAA111111IIIIIIIIIIIIIIIIIIIIIII
AAAAAAAAAAAAAAAAAAAAAAAAAAAAAAAAAAAA111111IIIIIIIIIIIIIIIIIIIIII
AAAAAAAAAAAAAAAAAAAAAAAAAAAAAAAAAAAAA111111IIIIIIIIIIIIIIIIIIIII
AAAAAAAAAAAAAAAAAAAAAAAAAAAAAAAAAAAAAA111111IIIIIIIIIIIIIIIIIIII
AAAAAAAAAAAAAAAAAAAAAAAAAAAAAAAAAAAAAAA111111IIIIIIIIIIIIIIIIIII
AAAAAAAAAAAAAAAAAAAAAAAAAAAAAAAAAAAAAAAA111111IIIIIIIIIIIIIIIIII
AAAAAAAAAAAAAAAAAAAAAAAAAAAAAAAAAAAAAAAAA111111IIIIIIIIIIIIIIIII
AAAAAAAAAAAAAAAAAAAAAAAAAAAAAAAAAAAAAAAAAA111111IIIIIIIIIIIIIIII
AAAAAAAAAAAAAAAAAAAAAAAAAAAAAAAAAAAAAAAAAAA111111IIIIIIIIIIIIIII
AAAAAAAAAAAAAAAAAAAAAAAAAAAAAAAAAAAAAAAAAAAA111111IIIIIIIIIIIIII
AAAAAAAAAAAAAAAAAAAAAAAAAAAAAAAAAAAAAAAAAAAAA111111IIIIIIIIIIIII
AAAAAAAAAAAAAAAAAAAAAAAAAAAAAAAAAAAAAAAAAAAAAA111111IIIIIIIIIIII
AAAAAAAAAAAAAAAAAAAAAAAAAAAAAAAAAAAAAAAAAAAAAAA111111IIIIIIIIIII
AAAAAAAAAAAAAAAAAAAAAAAAAAAAAAAAAAAAAAAAAAAAAAAA111111IIIIIIIIII
AAAAAAAAAAAAAAAAAAAAAAAAAAAAAAAAAAAAAAAAAAAAAAAAA111111IIIIIIIII
AAAAAAAAAAAAAAAAAAAAAAAAAAAAAAAAAAAAAAAAAAAAAAAAAA111111IIIIIIII
AAAAAAAAAAAAAAAAAAAAAAAAAAAAAAAAAAAAAAAAAAAAAAAAAAA111111IIIIIII
AAAAAAAAAAAAAAAAAAAAAAAAAAAAAAAAAAAAAAAAAAAAAAAAAAAA111111IIIIII
AAAAAAAAAAAAAAAAAAAAAAAAAAAAAAAAAAAAAAAAAAAAAAAAAAAAA111111IIIII
AAAAAAAAAAAAAAAAAAAAAAAAAAAAAAAAAAAAAAAAAAAAAAAAAAAAAA111111IIII
AAAAAAAAAAAAAAAAAAAAAAAAAAAAAAAAAAAAAAAAAAAAAAAAAAAAAAA111111III
AAAAAAAAAAAAAAAAAAAAAAAAAAAAAAAAAAAAAAAAAAAAAAAAAAAAAAAA111111II
AAAAAAAAAAAAAAAAAAAAAAAAAAAAAAAAAAAAAAAAAAAAAAAAAAAAAAAAA111111I
AAAAAAAAAAAAAAAAAAAAAAAAAAAAAAAAAAAAAAAAAAAAAAAAAAAAAAAAAA111111
AAAAAAAAAAAAAAAAAAAAAAAAAAAAAAAAAAAAAAAAAAAAAAAAAAAAAAAAAAA11111
AAAAAAAAAAAAAAAAAAAAAAAAAAAAAAAAAAAAAAAAAAAAAAAAAAAAAAAAAAAA1111
AAAAAAAAAAAAAAAAAAAAAAAAAAAAAAAAAAAAAAAAAAAAAAAAAAAAAAAAAAAAA111
AAAAAAAAAAAAAAAAAAAAAAAAAAAAAAAAAAAAAAAAAAAAAAAAAAAAAAAAAAAAAA11
AAAAAAAAAAAAAAAAAAAAAAAAAAAAAAAAAAAAAAAAAAAAAAAAAAAAAAAAAAAAAAA1
AAAAAAAAAAAAAAAAAAAAAAAAAAAAAAAAAAAAAAAAAAAAAAAAAAAAAAAAAAAAAAAA
A111111I1IIIIIIIIIIIIIIIIIIIIIIIIIIIIIIIIIIIIIIIIIIIIIIIIIIIIIII
AA11111111IIIIIIIIIIIIIIIIIIIIIIIIIIIIIIIIIIIIIIIIIIIIIIIIIIIIII
AAA11111111IIIIIIIIIIIIIIIIIIIIIIIIIIIIIIIIIIIIIIIIIIIIIIIIIIIII
AAAA1111111IIIIIIIIIIIIIIIIIIIIIIIIIIIIIIIIIIIIIIIIIIIIIIIIIIIII
AAAA11111111IIIIIIIIIIIIIIIIIIIIIIIIIIIIIIIIIIIIIIIIIIIIIIIIIIII
AAAAA11111111IIIIIIIIIIIIIIIIIIIIIIIIIIIIIIIIIIIIIIIIIIIIIIIIIII
AAAAAA11111111IIIIIIIIIIIIIIIIIIIIIIIIIIIIIIIIIIIIIIIIIIIIIIIIII
AAAAAAA1111111IIIIIIIIIIIIIIIIIIIIIIIIIIIIIIIIIIIIIIIIIIIIIIIIII
AAAAAAA11111111IIIIIIIIIIIIIIIIIIIIIIIIIIIIIIIIIIIIIIIIIIIIIIIII
AAAAAAAA11111111IIIIIIIIIIIIIIIIIIIIIIIIIIIIIIIIIIIIIIIIIIIIIIII
AAAAAAAAA11111111IIIIIIIIIIIIIIIIIIIIIIIIIIIIIIIIIIIIIIIIIIIIIII
AAAAAAAAAA11111111IIIIIIIIIIIIIIIIIIIIIIIIIIIIIIIIIIIIIIIIIIIIII
AAAAAAAAAAA11111111IIIIIIIIIIIIIIIIIIIIIIIIIIIIIIIIIIIIIIIIIIIII
AAAAAAAAAAAA11111111IIIIIIIIIIIIIIIIIIIIIIIIIIIIIIIIIIIIIIIIIIII
AAAAAAAAAAAAA11111111IIIIIIIIIIIIIIIIIIIIIIIIIIIIIIIIIIIIIIIIIII
AAAAAAAAAAAAAA11111111IIIIIIIIIIIIIIIIIIIIIIIIIIIIIIIIIIIIIIIIII
AAAAAAAAAAAAAAA1111111IIIIIIIIIIIIIIIIIIIIIIIIIIIIIIIIIIIIIIIIII
AAAAAAAAAAAAAAA11111111IIIIIIIIIIIIIIIIIIIIIIIIIIIIIIIIIIIIIIIII
AAAAAAAAAAAAAAAA11111111IIIIIIIIIIIIIIIIIIIIIIIIIIIIIIIIIIIIIIII
AAAAAAAAAAAAAAAAA11111111IIIIIIIIIIIIIIIIIIIIIIIIIIIIIIIIIIIIIII
AAAAAAAAAAAAAAAAAA11111111IIIIIIIIIIIIIIIIIIIIIIIIIIIIIIIIIIIIII
AAAAAAAAAAAAAAAAAAA11111111IIIIIIIIIIIIIIIIIIIIIIIIIIIIIIIIIIIII
AAAAAAAAAAAAAAAAAAAA11111111IIIIIIIIIIIIIIIIIIIIIIIIIIIIIIIIIIII
AAAAAAAAAAAAAAAAAAAAA11111111IIIIIIIIIIIIIIIIIIIIIIIIIIIIIIIIIII
AAAAAAAAAAAAAAAAAAAAAA11111111IIIIIIIIIIIIIIIIIIIIIIIIIIIIIIIIII
AAAAAAAAAAAAAAAAAAAAAAA1111111IIIIIIIIIIIIIIIIIIIIIIIIIIIIIIIIII
AAAAAAAAAAAAAAAAAAAAAAA11111111IIIIIIIIIIIIIIIIIIIIIIIIIIIIIIIII
AAAAAAAAAAAAAAAAAAAAAAAA11111111IIIIIIIIIIIIIIIIIIIIIIIIIIIIIIII
AAAAAAAAAAAAAAAAAAAAAAAAA1111111IIIIIIIIIIIIIIIIIIIIIIIIIIIIIIII
AAAAAAAAAAAAAAAAAAAAAAAAA11111111IIIIIIIIIIIIIIIIIIIIIIIIIIIIIII
AAAAAAAAAAAAAAAAAAAAAAAAAA11111111IIIIIIIIIIIIIIIIIIIIIIIIIIIIII
AAAAAAAAAAAAAAAAAAAAAAAAAAA11111111IIIIIIIIIIIIIIIIIIIIIIIIIIIII
AAAAAAAAAAAAAAAAAAAAAAAAAAAA11111111IIIIIIIIIIIIIIIIIIIIIIIIIIII
AAAAAAAAAAAAAAAAAAAAAAAAAAAAA11111111IIIIIIIIIIIIIIIIIIIIIIIIIII
AAAAAAAAAAAAAAAAAAAAAAAAAAAAAA11111111IIIIIIIIIIIIIIIIIIIIIIIIII
AAAAAAAAAAAAAAAAAAAAAAAAAAAAAAA11111111IIIIIIIIIIIIIIIIIIIIIIIII
AAAAAAAAAAAAAAAAAAAAAAAAAAAAAAAA11111111IIIIIIIIIIIIIIIIIIIIIIII
AAAAAAAAAAAAAAAAAAAAAAAAAAAAAAAAA1111111IIIIIIIIIIIIIIIIIIIIIIII
AAAAAAAAAAAAAAAAAAAAAAAAAAAAAAAAAA111111I1IIIIIIIIIIIIIIIIIIIIII
AAAAAAAAAAAAAAAAAAAAAAAAAAAAAAAAAAA11111111IIIIIIIIIIIIIIIIIIIII
AAAAAAAAAAAAAAAAAAAAAAAAAAAAAAAAAAAA11111111IIIIIIIIIIIIIIIIIIII
AAAAAAAAAAAAAAAAAAAAAAAAAAAAAAAAAAAAA1111111IIIIIIIIIIIIIIIIIIII
AAAAAAAAAAAAAAAAAAAAAAAAAAAAAAAAAAAAA11111111IIIIIIIIIIIIIIIIIII
AAAAAAAAAAAAAAAAAAAAAAAAAAAAAAAAAAAAAA11111111IIIIIIIIIIIIIIIIII
AAAAAAAAAAAAAAAAAAAAAAAAAAAAAAAAAAAAAAA11111111IIIIIIIIIIIIIIIII
AAAAAAAAAAAAAAAAAAAAAAAAAAAAAAAAAAAAAAAA1111111IIIIIIIIIIIIIIIII
AAAAAAAAAAAAAAAAAAAAAAAAAAAAAAAAAAAAAAAA11111111IIIIIIIIIIIIIIII
AAAAAAAAAAAAAAAAAAAAAAAAAAAAAAAAAAAAAAAAA11111111IIIIIIIIIIIIIII
AAAAAAAAAAAAAAAAAAAAAAAAAAAAAAAAAAAAAAAAAA11111111IIIIIIIIIIIIII
AAAAAAAAAAAAAAAAAAAAAAAAAAAAAAAAAAAAAAAAAAA11111111IIIIIIIIIIIII
AAAAAAAAAAAAAAAAAAAAAAAAAAAAAAAAAAAAAAAAAAAA11111111IIIIIIIIIIII
AAAAAAAAAAAAAAAAAAAAAAAAAAAAAAAAAAAAAAAAAAAAA11111111IIIIIIIIIII
AAAAAAAAAAAAAAAAAAAAAAAAAAAAAAAAAAAAAAAAAAAAAA1111111IIIIIIIIIII
AAAAAAAAAAAAAAAAAAAAAAAAAAAAAAAAAAAAAAAAAAAAAA11111111IIIIIIIIII
AAAAAAAAAAAAAAAAAAAAAAAAAAAAAAAAAAAAAAAAAAAAAAA11111111IIIIIIIII
AAAAAAAAAAAAAAAAAAAAAAAAAAAAAAAAAAAAAAAAAAAAAAAA11111111IIIIIIII
AAAAAAAAAAAAAAAAAAAAAAAAAAAAAAAAAAAAAAAAAAAAAAAAA11111111IIIIIII
AAAAAAAAAAAAAAAAAAAAAAAAAAAAAAAAAAAAAAAAAAAAAAAAAA11111111IIIIII
AAAAAAAAAAAAAAAAAAAAAAAAAAAAAAAAAAAAAAAAAAAAAAAAAAA11111111IIIII
AAAAAAAAAAAAAAAAAAAAAAAAAAAAAAAAAAAAAAAAAAAAAAAAAAAA11111111IIII
AAAAAAAAAAAAAAAAAAAAAAAAAAAAAAAAAAAAAAAAAAAAAAAAAAAAA11111111III
AAAAAAAAAAAAAAAAAAAAAAAAAAAAAAAAAAAAAAAAAAAAAAAAAAAAAA11111111II
AAAAAAAAAAAAAAAAAAAAAAAAAAAAAAAAAAAAAAAAAAAAAAAAAAAAAAA11111111I
AAAAAAAAAAAAAAAAAAAAAAAAAAAAAAAAAAAAAAAAAAAAAAAAAAAAAAAA11111111
AAAAAAAAAAAAAAAAAAAAAAAAAAAAAAAAAAAAAAAAAAAAAAAAAAAAAAAAA1111111
AAAAAAAAAAAAAAAAAAAAAAAAAAAAAAAAAAAAAAAAAAAAAAAAAAAAAAAAAA111111
AAAAAAAAAAAAAAAAAAAAAAAAAAAAAAAAAAAAAAAAAAAAAAAAAAAAAAAAAAA11111
AAAAAAAAAAAAAAAAAAAAAAAAAAAAAAAAAAAAAAAAAAAAAAAAAAAAAAAAAAAA1111
AAAAAAAAAAAAAAAAAAAAAAAAAAAAAAAAAAAAAAAAAAAAAAAAAAAAAAAAAAAAA111
AAAAAAAAAAAAAAAAAAAAAAAAAAAAAAAAAAAAAAAAAAAAAAAAAAAAAAAAAAAAAA11
AAAAAAAAAAAAAAAAAAAAAAAAAAAAAAAAAAAAAAAAAAAAAAAAAAAAAAAAAAAAAAA1
AAAAAAAAAAAAAAAAAAAAAAAAAAAAAAAAAAAAAAAAAAAAAAAAAAAAAAAAAAAAAAAA
A11111IIIIIIIIIIIIIIIIIIIIIIIIIIIIIIIIIIIIIIIIIIIIIIIIIIIIIIIIII
AA11111IIIIIIIIIIIIIIIIIIIIIIIIIIIIIIIIIIIIIIIIIIIIIIIIIIIIIIIII
AAA11111IIIIIIIIIIIIIIIIIIIIIIIIIIIIIIIIIIIIIIIIIIIIIIIIIIIIIIII
AAAA11111IIIIIIIIIIIIIIIIIIIIIIIIIIIIIIIIIIIIIIIIIIIIIIIIIIIIIII
AAAAA11111IIIIIIIIIIIIIIIIIIIIIIIIIIIIIIIIIIIIIIIIIIIIIIIIIIIIII
AAAAAA11111IIIIIIIIIIIIIIIIIIIIIIIIIIIIIIIIIIIIIIIIIIIIIIIIIIIII
AAAAAAA11111IIIIIIIIIIIIIIIIIIIIIIIIIIIIIIIIIIIIIIIIIIIIIIIIIIII
AAAAAAAA11111IIIIIIIIIIIIIIIIIIIIIIIIIIIIIIIIIIIIIIIIIIIIIIIIIII
AAAAAAAAA11111IIIIIIIIIIIIIIIIIIIIIIIIIIIIIIIIIIIIIIIIIIIIIIIIII
AAAAAAAAAA1111IIIIIIIIIIIIIIIIIIIIIIIIIIIIIIIIIIIIIIIIIIIIIIIIII
AAAAAAAAAA11111IIIIIIIIIIIIIIIIIIIIIIIIIIIIIIIIIIIIIIIIIIIIIIIII
AAAAAAAAAAA11111IIIIIIIIIIIIIIIIIIIIIIIIIIIIIIIIIIIIIIIIIIIIIIII
AAAAAAAAAAAA11111IIIIIIIIIIIIIIIIIIIIIIIIIIIIIIIIIIIIIIIIIIIIIII
AAAAAAAAAAAAA11111IIIIIIIIIIIIIIIIIIIIIIIIIIIIIIIIIIIIIIIIIIIIII
AAAAAAAAAAAAAA11111IIIIIIIIIIIIIIIIIIIIIIIIIIIIIIIIIIIIIIIIIIIII
AAAAAAAAAAAAAAA1111IIIIIIIIIIIIIIIIIIIIIIIIIIIIIIIIIIIIIIIIIIIII
AAAAAAAAAAAAAAAA11111IIIIIIIIIIIIIIIIIIIIIIIIIIIIIIIIIIIIIIIIIII
AAAAAAAAAAAAAAAAA11111IIIIIIIIIIIIIIIIIIIIIIIIIIIIIIIIIIIIIIIIII
AAAAAAAAAAAAAAAAAA11111IIIIIIIIIIIIIIIIIIIIIIIIIIIIIIIIIIIIIIIII
AAAAAAAAAAAAAAAAAAA11111IIIIIIIIIIIIIIIIIIIIIIIIIIIIIIIIIIIIIIII
AAAAAAAAAAAAAAAAAAAA11111IIIIIIIIIIIIIIIIIIIIIIIIIIIIIIIIIIIIIII
AAAAAAAAAAAAAAAAAAAAA11111IIIIIIIIIIIIIIIIIIIIIIIIIIIIIIIIIIIIII
AAAAAAAAAAAAAAAAAAAAAA11111IIIIIIIIIIIIIIIIIIIIIIIIIIIIIIIIIIIII
AAAAAAAAAAAAAAAAAAAAAAA11111IIIIIIIIIIIIIIIIIIIIIIIIIIIIIIIIIIII
AAAAAAAAAAAAAAAAAAAAAAAA1111IIIIIIIIIIIIIIIIIIIIIIIIIIIIIIIIIIII
AAAAAAAAAAAAAAAAAAAAAAAAA11111IIIIIIIIIIIIIIIIIIIIIIIIIIIIIIIIII
AAAAAAAAAAAAAAAAAAAAAAAAAA11111IIIIIIIIIIIIIIIIIIIIIIIIIIIIIIIII
AAAAAAAAAAAAAAAAAAAAAAAAAAA11111IIIIIIIIIIIIIIIIIIIIIIIIIIIIIIII
AAAAAAAAAAAAAAAAAAAAAAAAAAAA11111IIIIIIIIIIIIIIIIIIIIIIIIIIIIIII
AAAAAAAAAAAAAAAAAAAAAAAAAAAAA11111IIIIIIIIIIIIIIIIIIIIIIIIIIIIII
AAAAAAAAAAAAAAAAAAAAAAAAAAAAAA11111IIIIIIIIIIIIIIIIIIIIIIIIIIIII
AAAAAAAAAAAAAAAAAAAAAAAAAAAAAAA11111IIIIIIIIIIIIIIIIIIIIIIIIIIII
AAAAAAAAAAAAAAAAAAAAAAAAAAAAAAAA11111IIIIIIIIIIIIIIIIIIIIIIIIIII
AAAAAAAAAAAAAAAAAAAAAAAAAAAAAAAAA11111IIIIIIIIIIIIIIIIIIIIIIIIII
AAAAAAAAAAAAAAAAAAAAAAAAAAAAAAAAAA1111IIIIIIIIIIIIIIIIIIIIIIIIII
AAAAAAAAAAAAAAAAAAAAAAAAAAAAAAAAAA11111IIIIIIIIIIIIIIIIIIIIIIIII
AAAAAAAAAAAAAAAAAAAAAAAAAAAAAAAAAAA11111IIIIIIIIIIIIIIIIIIIIIIII
AAAAAAAAAAAAAAAAAAAAAAAAAAAAAAAAAAAA11111IIIIIIIIIIIIIIIIIIIIIII
AAAAAAAAAAAAAAAAAAAAAAAAAAAAAAAAAAAAA11111IIIIIIIIIIIIIIIIIIIIII
AAAAAAAAAAAAAAAAAAAAAAAAAAAAAAAAAAAAAA11111IIIIIIIIIIIIIIIIIIIII
AAAAAAAAAAAAAAAAAAAAAAAAAAAAAAAAAAAAAAA1111IIIIIIIIIIIIIIIIIIIII
AAAAAAAAAAAAAAAAAAAAAAAAAAAAAAAAAAAAAAA11111IIIIIIIIIIIIIIIIIIII
AAAAAAAAAAAAAAAAAAAAAAAAAAAAAAAAAAAAAAAA11111IIIIIIIIIIIIIIIIIII
AAAAAAAAAAAAAAAAAAAAAAAAAAAAAAAAAAAAAAAAA11111IIIIIIIIIIIIIIIIII
AAAAAAAAAAAAAAAAAAAAAAAAAAAAAAAAAAAAAAAAAA11111IIIIIIIIIIIIIIIII
AAAAAAAAAAAAAAAAAAAAAAAAAAAAAAAAAAAAAAAAAAA11111IIIIIIIIIIIIIIII
AAAAAAAAAAAAAAAAAAAAAAAAAAAAAAAAAAAAAAAAAAAA1111IIIIIIIIIIIIIIII
AAAAAAAAAAAAAAAAAAAAAAAAAAAAAAAAAAAAAAAAAAAA11111IIIIIIIIIIIIIII
AAAAAAAAAAAAAAAAAAAAAAAAAAAAAAAAAAAAAAAAAAAAA11111IIIIIIIIIIIIII
AAAAAAAAAAAAAAAAAAAAAAAAAAAAAAAAAAAAAAAAAAAAAA1111IIIIIIIIIIIIII
AAAAAAAAAAAAAAAAAAAAAAAAAAAAAAAAAAAAAAAAAAAAAA11111IIIIIIIIIIIII
AAAAAAAAAAAAAAAAAAAAAAAAAAAAAAAAAAAAAAAAAAAAAAA11111IIIIIIIIIIII
AAAAAAAAAAAAAAAAAAAAAAAAAAAAAAAAAAAAAAAAAAAAAAAA11111IIIIIIIIIII
AAAAAAAAAAAAAAAAAAAAAAAAAAAAAAAAAAAAAAAAAAAAAAAAA11111IIIIIIIIII
AAAAAAAAAAAAAAAAAAAAAAAAAAAAAAAAAAAAAAAAAAAAAAAAAA11111IIIIIIIII
AAAAAAAAAAAAAAAAAAAAAAAAAAAAAAAAAAAAAAAAAAAAAAAAAAA11111IIIIIIII
AAAAAAAAAAAAAAAAAAAAAAAAAAAAAAAAAAAAAAAAAAAAAAAAAAAA11111IIIIIII
AAAAAAAAAAAAAAAAAAAAAAAAAAAAAAAAAAAAAAAAAAAAAAAAAAAAA11111IIIIII
AAAAAAAAAAAAAAAAAAAAAAAAAAAAAAAAAAAAAAAAAAAAAAAAAAAAAA11111IIIII
AAAAAAAAAAAAAAAAAAAAAAAAAAAAAAAAAAAAAAAAAAAAAAAAAAAAAAA11111IIII
AAAAAAAAAAAAAAAAAAAAAAAAAAAAAAAAAAAAAAAAAAAAAAAAAAAAAAAA1111IIII
AAAAAAAAAAAAAAAAAAAAAAAAAAAAAAAAAAAAAAAAAAAAAAAAAAAAAAAA11111III
AAAAAAAAAAAAAAAAAAAAAAAAAAAAAAAAAAAAAAAAAAAAAAAAAAAAAAAAA11111II
AAAAAAAAAAAAAAAAAAAAAAAAAAAAAAAAAAAAAAAAAAAAAAAAAAAAAAAAAA11111I
AAAAAAAAAAAAAAAAAAAAAAAAAAAAAAAAAAAAAAAAAAAAAAAAAAAAAAAAAAA11111
AAAAAAAAAAAAAAAAAAAAAAAAAAAAAAAAAAAAAAAAAAAAAAAAAAAAAAAAAAAA1111
AAAAAAAAAAAAAAAAAAAAAAAAAAAAAAAAAAAAAAAAAAAAAAAAAAAAAAAAAAAAA111
AAAAAAAAAAAAAAAAAAAAAAAAAAAAAAAAAAAAAAAAAAAAAAAAAAAAAAAAAAAAAA11
AAAAAAAAAAAAAAAAAAAAAAAAAAAAAAAAAAAAAAAAAAAAAAAAAAAAAAAAAAAAAAA1
AAAAAAAAAAAAAAAAAAAAAAAAAAAAAAAAAAAAAAAAAAAAAAAAAAAAAAAAAAAAAAAA
A11111IIIIIIIIIIIIIIIIIIIIIIIIIIIIIIIIIIIIIIIIIIIIIIIIIIIIIIIIII
AA11111IIIIIIIIIIIIIIIIIIIIIIIIIIIIIIIIIIIIIIIIIIIIIIIIIIIIIIIII
AAA11111IIIIIIIIIIIIIIIIIIIIIIIIIIIIIIIIIIIIIIIIIIIIIIIIIIIIIIII
AAAA11111IIIIIIIIIIIIIIIIIIIIIIIIIIIIIIIIIIIIIIIIIIIIIIIIIIIIIII
AAAAA11111IIIIIIIIIIIIIIIIIIIIIIIIIIIIIIIIIIIIIIIIIIIIIIIIIIIIII
AAAAAA11111IIIIIIIIIIIIIIIIIIIIIIIIIIIIIIIIIIIIIIIIIIIIIIIIIIIII
AAAAAAA11111IIIIIIIIIIIIIIIIIIIIIIIIIIIIIIIIIIIIIIIIIIIIIIIIIIII
AAAAAAAA11111IIIIIIIIIIIIIIIIIIIIIIIIIIIIIIIIIIIIIIIIIIIIIIIIIII
AAAAAAAAA11111IIIIIIIIIIIIIIIIIIIIIIIIIIIIIIIIIIIIIIIIIIIIIIIIII
AAAAAAAAAA11111IIIIIIIIIIIIIIIIIIIIIIIIIIIIIIIIIIIIIIIIIIIIIIIII
AAAAAAAAAAA11111IIIIIIIIIIIIIIIIIIIIIIIIIIIIIIIIIIIIIIIIIIIIIIII
AAAAAAAAAAAA1111IIIIIIIIIIIIIIIIIIIIIIIIIIIIIIIIIIIIIIIIIIIIIIII
AAAAAAAAAAAA11111IIIIIIIIIIIIIIIIIIIIIIIIIIIIIIIIIIIIIIIIIIIIIII
AAAAAAAAAAAAA1111IIIIIIIIIIIIIIIIIIIIIIIIIIIIIIIIIIIIIIIIIIIIIII
AAAAAAAAAAAAA11111IIIIIIIIIIIIIIIIIIIIIIIIIIIIIIIIIIIIIIIIIIIIII
AAAAAAAAAAAAAA1111IIIIIIIIIIIIIIIIIIIIIIIIIIIIIIIIIIIIIIIIIIIIII
AAAAAAAAAAAAAA11111IIIIIIIIIIIIIIIIIIIIIIIIIIIIIIIIIIIIIIIIIIIII
AAAAAAAAAAAAAAA11111IIIIIIIIIIIIIIIIIIIIIIIIIIIIIIIIIIIIIIIIIIII
AAAAAAAAAAAAAAAA1111IIIIIIIIIIIIIIIIIIIIIIIIIIIIIIIIIIIIIIIIIIII
AAAAAAAAAAAAAAAA11111IIIIIIIIIIIIIIIIIIIIIIIIIIIIIIIIIIIIIIIIIII
AAAAAAAAAAAAAAAAA1111IIIIIIIIIIIIIIIIIIIIIIIIIIIIIIIIIIIIIIIIIII
AAAAAAAAAAAAAAAAA11111IIIIIIIIIIIIIIIIIIIIIIIIIIIIIIIIIIIIIIIIII
AAAAAAAAAAAAAAAAAA11111IIIIIIIIIIIIIIIIIIIIIIIIIIIIIIIIIIIIIIIII
AAAAAAAAAAAAAAAAAAA11111IIIIIIIIIIIIIIIIIIIIIIIIIIIIIIIIIIIIIIII
AAAAAAAAAAAAAAAAAAAA11111IIIIIIIIIIIIIIIIIIIIIIIIIIIIIIIIIIIIIII
AAAAAAAAAAAAAAAAAAAAA11111IIIIIIIIIIIIIIIIIIIIIIIIIIIIIIIIIIIIII
AAAAAAAAAAAAAAAAAAAAAA11111IIIIIIIIIIIIIIIIIIIIIIIIIIIIIIIIIIIII
AAAAAAAAAAAAAAAAAAAAAAA1111IIIIIIIIIIIIIIIIIIIIIIIIIIIIIIIIIIIII
AAAAAAAAAAAAAAAAAAAAAAA11111IIIIIIIIIIIIIIIIIIIIIIIIIIIIIIIIIIII
AAAAAAAAAAAAAAAAAAAAAAAA11111IIIIIIIIIIIIIIIIIIIIIIIIIIIIIIIIIII
AAAAAAAAAAAAAAAAAAAAAAAAA11111IIIIIIIIIIIIIIIIIIIIIIIIIIIIIIIIII
AAAAAAAAAAAAAAAAAAAAAAAAAA1111IIIIIIIIIIIIIIIIIIIIIIIIIIIIIIIIII
AAAAAAAAAAAAAAAAAAAAAAAAAA11111IIIIIIIIIIIIIIIIIIIIIIIIIIIIIIIII
AAAAAAAAAAAAAAAAAAAAAAAAAAA1111IIIIIIIIIIIIIIIIIIIIIIIIIIIIIIIII
AAAAAAAAAAAAAAAAAAAAAAAAAAA11111IIIIIIIIIIIIIIIIIIIIIIIIIIIIIIII
AAAAAAAAAAAAAAAAAAAAAAAAAAAA11111IIIIIIIIIIIIIIIIIIIIIIIIIIIIIII
AAAAAAAAAAAAAAAAAAAAAAAAAAAAA11111IIIIIIIIIIIIIIIIIIIIIIIIIIIIII
AAAAAAAAAAAAAAAAAAAAAAAAAAAAAA1111IIIIIIIIIIIIIIIIIIIIIIIIIIIIII
AAAAAAAAAAAAAAAAAAAAAAAAAAAAAA11111IIIIIIIIIIIIIIIIIIIIIIIIIIIII
AAAAAAAAAAAAAAAAAAAAAAAAAAAAAAA11111IIIIIIIIIIIIIIIIIIIIIIIIIIII
AAAAAAAAAAAAAAAAAAAAAAAAAAAAAAAA11111IIIIIIIIIIIIIIIIIIIIIIIIIII
AAAAAAAAAAAAAAAAAAAAAAAAAAAAAAAAA11111IIIIIIIIIIIIIIIIIIIIIIIIII
AAAAAAAAAAAAAAAAAAAAAAAAAAAAAAAAAA1111IIIIIIIIIIIIIIIIIIIIIIIIII
[...]
AAAAAAAAAAAAAAAAAAAAAAAAAAAA111111111111IIIIIIIIIIIIIIIIIIIIIIII
AAAAAAAAAAAAAAAAAAAAAAAAAAAAA111111111111IIIIIIIIIIIIIIIIIIIIIII
AAAAAAAAAAAAAAAAAAAAAAAAAAAAAA111111111111IIIIIIIIIIIIIIIIIIIIII
AAAAAAAAAAAAAAAAAAAAAAAAAAAAAA1A1111111111I1IIIIIIIIIIIIIIIIIIII
AAAAAAAAAAAAAAAAAAAAAAAAAAAAAA1AA111111111I11IIIIIIIIIIIIIIIIIII
AAAAAAAAAAAAAAAAAAAAAAAAAAAAAA1AAA11111111I111IIIIIIIIIIIIIIIIII
AAAAAAAAAAAAAAAAAAAAAAAAAAAAAAAAAA111111111111IIIIIIIIIIIIIIIIII
AAAAAAAAAAAAAAAAAAAAAAAAAAAAAAAAAAA111111111111IIIIIIIIIIIIIIIII
AAAAAAAAAAAAAAAAAAAAAAAAAAAAAAAAAAAA111111111111IIIIIIIIIIIIIIII
AAAAAAAAAAAAAAAAAAAAAAAAAAAAAAAAAAAAA111111111111IIIIIIIIIIIIIII
AAAAAAAAAAAAAAAAAAAAAAAAAAAAAAAAAAAAA1A1111111111I1IIIIIIIIIIIII
AAAAAAAAAAAAAAAAAAAAAAAAAAAAAAAAAAAAA1AA111111111I11IIIIIIIIIIII
AAAAAAAAAAAAAAAAAAAAAAAAAAAAAAAAAAAAAAAA111111111111IIIIIIIIIIII
AAAAAAAAAAAAAAAAAAAAAAAAAAAAAAAAAAAAAAAAA111111111111IIIIIIIIIII
AAAAAAAAAAAAAAAAAAAAAAAAAAAAAAAAAAAAAAAAAA111111111111IIIIIIIIII
AAAAAAAAAAAAAAAAAAAAAAAAAAAAAAAAAAAAAAAAAA1A1111111111I1IIIIIIII
AAAAAAAAAAAAAAAAAAAAAAAAAAAAAAAAAAAAAAAAAA1AA111111111I11IIIIIII
AAAAAAAAAAAAAAAAAAAAAAAAAAAAAAAAAAAAAAAAAA1AAA11111111I111IIIIII
AAAAAAAAAAAAAAAAAAAAAAAAAAAAAAAAAAAAAAAAAAAAAA111111111111IIIIII
AAAAAAAAAAAAAAAAAAAAAAAAAAAAAAAAAAAAAAAAAAAAAAA111111111111IIIII
AAAAAAAAAAAAAAAAAAAAAAAAAAAAAAAAAAAAAAAAAAAAAAAA111111111111IIII
AAAAAAAAAAAAAAAAAAAAAAAAAAAAAAAAAAAAAAAAAAAAAAAA1A1111111111I1II
AAAAAAAAAAAAAAAAAAAAAAAAAAAAAAAAAAAAAAAAAAAAAAAA1AA111111111I11I
AAAAAAAAAAAAAAAAAAAAAAAAAAAAAAAAAAAAAAAAAAAAAAAA1AAA11111111I111
AAAAAAAAAAAAAAAAAAAAAAAAAAAAAAAAAAAAAAAAAAAAAAAAAAAA111111111111
AAAAAAAAAAAAAAAAAAAAAAAAAAAAAAAAAAAAAAAAAAAAAAAAAAAAA11111111111
AAAAAAAAAAAAAAAAAAAAAAAAAAAAAAAAAAAAAAAAAAAAAAAAAAAAAA1111111111
AAAAAAAAAAAAAAAAAAAAAAAAAAAAAAAAAAAAAAAAAAAAAAAAAAAAAA1A11111111
AAAAAAAAAAAAAAAAAAAAAAAAAAAAAAAAAAAAAAAAAAAAAAAAAAAAAA1AA1111111
AAAAAAAAAAAAAAAAAAAAAAAAAAAAAAAAAAAAAAAAAAAAAAAAAAAAAA1AAA111111
AAAAAAAAAAAAAAAAAAAAAAAAAAAAAAAAAAAAAAAAAAAAAAAAAAAAAAAAAA111111
AAAAAAAAAAAAAAAAAAAAAAAAAAAAAAAAAAAAAAAAAAAAAAAAAAAAAAAAAAA11111
AAAAAAAAAAAAAAAAAAAAAAAAAAAAAAAAAAAAAAAAAAAAAAAAAAAAAAAAAAAA1111
AAAAAAAAAAAAAAAAAAAAAAAAAAAAAAAAAAAAAAAAAAAAAAAAAAAAAAAAAAAA1A11
AAAAAAAAAAAAAAAAAAAAAAAAAAAAAAAAAAAAAAAAAAAAAAAAAAAAAAAAAAAA1AA1
AAAAAAAAAAAAAAAAAAAAAAAAAAAAAAAAAAAAAAAAAAAAAAAAAAAAAAAAAAAA1AAA
AAAAAAAAAAAAAAAAAAAAAAAAAAAAAAAAAAAAAAAAAAAAAAAAAAAAAAAAAAAAAAAA
AI1I1I1IIIII1IIIIIIIIIIIIIIIIIIIIIIIIIIIIIIIIIIIIIIIIIIIIIIIIIII
AA111111IIII11IIIIIIIIIIIIIIIIIIIIIIIIIIIIIIIIIIIIIIIIIIIIIIIIII
AAA111111III111IIIIIIIIIIIIIIIIIIIIIIIIIIIIIIIIIIIIIIIIIIIIIIIII
AAAA111111II111IIIIIIIIIIIIIIIIIIIIIIIIIIIIIIIIIIIIIIIIIIIIIIIII
AAAAA111111I111I1IIIIIIIIIIIIIIIIIIIIIIIIIIIIIIIIIIIIIIIIIIIIIII
AAAAAA111111111I11IIIIIIIIIIIIIIIIIIIIIIIIIIIIIIIIIIIIIIIIIIIIII
AAAAAA1A1111111I11I1IIIIIIIIIIIIIIIIIIIIIIIIIIIIIIIIIIIIIIIIIIII
AAAAAA1AA111111I11I11IIIIIIIIIIIIIIIIIIIIIIIIIIIIIIIIIIIIIIIIIII
AAAAAA1AAA11111111I111IIIIIIIIIIIIIIIIIIIIIIIIIIIIIIIIIIIIIIIIII
AAAAAAAAAA111111111111IIIIIIIIIIIIIIIIIIIIIIIIIIIIIIIIIIIIIIIIII
AAAAAAAAAAA111111111111IIIIIIIIIIIIIIIIIIIIIIIIIIIIIIIIIIIIIIIII
AAAAAAAAAAAA111111111111IIIIIIIIIIIIIIIIIIIIIIIIIIIIIIIIIIIIIIII
AAAAAAAAAAAA1A1111111111I1IIIIIIIIIIIIIIIIIIIIIIIIIIIIIIIIIIIIII
AAAAAAAAAAAA1AA111111111I11IIIIIIIIIIIIIIIIIIIIIIIIIIIIIIIIIIIII
AAAAAAAAAAAA1AAA11111111I111IIIIIIIIIIIIIIIIIIIIIIIIIIIIIIIIIIII
AAAAAAAAAAAAAAAA111111111111IIIIIIIIIIIIIIIIIIIIIIIIIIIIIIIIIIII
AAAAAAAAAAAAAAAAA111111111111IIIIIIIIIIIIIIIIIIIIIIIIIIIIIIIIIII
AAAAAAAAAAAAAAAAAA111111111111IIIIIIIIIIIIIIIIIIIIIIIIIIIIIIIIII
AAAAAAAAAAAAAAAAAA1A1111111111I1IIIIIIIIIIIIIIIIIIIIIIIIIIIIIIII
AAAAAAAAAAAAAAAAAA1AA111111111I11IIIIIIIIIIIIIIIIIIIIIIIIIIIIIII
AAAAAAAAAAAAAAAAAA1AAA11111111I111IIIIIIIIIIIIIIIIIIIIIIIIIIIIII
AAAAAAAAAAAAAAAAAAAAAA111111111111IIIIIIIIIIIIIIIIIIIIIIIIIIIIII
AAAAAAAAAAAAAAAAAAAAAAA111111111111IIIIIIIIIIIIIIIIIIIIIIIIIIIII
AAAAAAAAAAAAAAAAAAAAAAAA111111111111IIIIIIIIIIIIIIIIIIIIIIIIIIII
AAAAAAAAAAAAAAAAAAAAAAAA1A1111111111I1IIIIIIIIIIIIIIIIIIIIIIIIII
AAAAAAAAAAAAAAAAAAAAAAAA1AA111111111I11IIIIIIIIIIIIIIIIIIIIIIIII
AAAAAAAAAAAAAAAAAAAAAAAA1AAA11111111I111IIIIIIIIIIIIIIIIIIIIIIII
AAAAAAAAAAAAAAAAAAAAAAAAAAAA11111111I111IIIIIIIIIIIIIIIIIIIIIIII
AAAAAAAAAAAAAAAAAAAAAAAAAAAAA1111111I1111IIIIIIIIIIIIIIIIIIIIIII
AAAAAAAAAAAAAAAAAAAAAAAAAAAAAA111111I11111IIIIIIIIIIIIIIIIIIIIII
AAAAAAAAAAAAAAAAAAAAAAAAAAAAAAA111111111111IIIIIIIIIIIIIIIIIIIII
AAAAAAAAAAAAAAAAAAAAAAAAAAAAAAA1A1111111111I1IIIIIIIIIIIIIIIIIII
AAAAAAAAAAAAAAAAAAAAAAAAAAAAAAAAA111111111111IIIIIIIIIIIIIIIIIII
AAAAAAAAAAAAAAAAAAAAAAAAAAAAAAAAAA111111111111IIIIIIIIIIIIIIIIII
AAAAAAAAAAAAAAAAAAAAAAAAAAAAAAAAAAA111111111111IIIIIIIIIIIIIIIII
AAAAAAAAAAAAAAAAAAAAAAAAAAAAAAAAAAAA111111111111IIIIIIIIIIIIIIII
AAAAAAAAAAAAAAAAAAAAAAAAAAAAAAAAAAAA1A1111111111I1IIIIIIIIIIIIII
AAAAAAAAAAAAAAAAAAAAAAAAAAAAAAAAAAAA1AA111111111I11IIIIIIIIIIIII
AAAAAAAAAAAAAAAAAAAAAAAAAAAAAAAAAAAA1AAA11111111I111IIIIIIIIIIII
AAAAAAAAAAAAAAAAAAAAAAAAAAAAAAAAAAAAAAAA111111111111IIIIIIIIIIII
AAAAAAAAAAAAAAAAAAAAAAAAAAAAAAAAAAAAAAAAA111111111111IIIIIIIIIII
AAAAAAAAAAAAAAAAAAAAAAAAAAAAAAAAAAAAAAAAAA111111111111IIIIIIIIII
AAAAAAAAAAAAAAAAAAAAAAAAAAAAAAAAAAAAAAAAAA1A1111111111I1IIIIIIII
AAAAAAAAAAAAAAAAAAAAAAAAAAAAAAAAAAAAAAAAAA1AA111111111I11IIIIIII
AAAAAAAAAAAAAAAAAAAAAAAAAAAAAAAAAAAAAAAAAA1AAA11111111I111IIIIII
AAAAAAAAAAAAAAAAAAAAAAAAAAAAAAAAAAAAAAAAAAAAAA111111111111IIIIII
AAAAAAAAAAAAAAAAAAAAAAAAAAAAAAAAAAAAAAAAAAAAAAA111111111111IIIII
AAAAAAAAAAAAAAAAAAAAAAAAAAAAAAAAAAAAAAAAAAAAAAAA111111111111IIII
AAAAAAAAAAAAAAAAAAAAAAAAAAAAAAAAAAAAAAAAAAAAAAAA1A1111111111I1II
AAAAAAAAAAAAAAAAAAAAAAAAAAAAAAAAAAAAAAAAAAAAAAAA1AA111111111I11I
AAAAAAAAAAAAAAAAAAAAAAAAAAAAAAAAAAAAAAAAAAAAAAAA1AAA11111111I111
AAAAAAAAAAAAAAAAAAAAAAAAAAAAAAAAAAAAAAAAAAAAAAAAAAAA111111111111
AAAAAAAAAAAAAAAAAAAAAAAAAAAAAAAAAAAAAAAAAAAAAAAAAAAAA11111111111
AAAAAAAAAAAAAAAAAAAAAAAAAAAAAAAAAAAAAAAAAAAAAAAAAAAAAA1111111111
AAAAAAAAAAAAAAAAAAAAAAAAAAAAAAAAAAAAAAAAAAAAAAAAAAAAAA1A11111111
AAAAAAAAAAAAAAAAAAAAAAAAAAAAAAAAAAAAAAAAAAAAAAAAAAAAAA1AA1111111
AAAAAAAAAAAAAAAAAAAAAAAAAAAAAAAAAAAAAAAAAAAAAAAAAAAAAA1AAA111111
AAAAAAAAAAAAAAAAAAAAAAAAAAAAAAAAAAAAAAAAAAAAAAAAAAAAAAAAAA111111
AAAAAAAAAAAAAAAAAAAAAAAAAAAAAAAAAAAAAAAAAAAAAAAAAAAAAAAAAAA11111
AAAAAAAAAAAAAAAAAAAAAAAAAAAAAAAAAAAAAAAAAAAAAAAAAAAAAAAAAAAA1111
AAAAAAAAAAAAAAAAAAAAAAAAAAAAAAAAAAAAAAAAAAAAAAAAAAAAAAAAAAAA1A11
AAAAAAAAAAAAAAAAAAAAAAAAAAAAAAAAAAAAAAAAAAAAAAAAAAAAAAAAAAAA1AA1
AAAAAAAAAAAAAAAAAAAAAAAAAAAAAAAAAAAAAAAAAAAAAAAAAAAAAAAAAAAA1AAA
AAAAAAAAAAAAAAAAAAAAAAAAAAAAAAAAAAAAAAAAAAAAAAAAAAAAAAAAAAAAAAAA
AIIIII1IIIII1IIIIIIIIIIIIIIIIIIIIIIIIIIIIIIIIIIIIIIIIIIIIIIIIIII
AAIIII11IIII11IIIIIIIIIIIIIIIIIIIIIIIIIIIIIIIIIIIIIIIIIIIIIIIIII
AAAIII111III111IIIIIIIIIIIIIIIIIIIIIIIIIIIIIIIIIIIIIIIIIIIIIIIII
AAAAII1111II1111IIIIIIIIIIIIIIIIIIIIIIIIIIIIIIIIIIIIIIIIIIIIIIII
AAAAAI11111I11111IIIIIIIIIIIIIIIIIIIIIIIIIIIIIIIIIIIIIIIIIIIIIII
AAAAAA111111111111IIIIIIIIIIIIIIIIIIIIIIIIIIIIIIIIIIIIIIIIIIIIII
AAAAAA1A1111111111I1IIIIIIIIIIIIIIIIIIIIIIIIIIIIIIIIIIIIIIIIIIII
AAAAAA1AA111111111I11IIIIIIIIIIIIIIIIIIIIIIIIIIIIIIIIIIIIIIIIIII
AAAAAA1AAA11111111I111IIIIIIIIIIIIIIIIIIIIIIIIIIIIIIIIIIIIIIIIII
AAAAAAAAAA111111111111IIIIIIIIIIIIIIIIIIIIIIIIIIIIIIIIIIIIIIIIII
AAAAAAAAAAA111111111111IIIIIIIIIIIIIIIIIIIIIIIIIIIIIIIIIIIIIIIII
AAAAAAAAAAAA111111111111IIIIIIIIIIIIIIIIIIIIIIIIIIIIIIIIIIIIIIII
AAAAAAAAAAAA1A1111111111I1IIIIIIIIIIIIIIIIIIIIIIIIIIIIIIIIIIIIII
AAAAAAAAAAAA1AA111111111I11IIIIIIIIIIIIIIIIIIIIIIIIIIIIIIIIIIIII
AAAAAAAAAAAA1AAA11111111I111IIIIIIIIIIIIIIIIIIIIIIIIIIIIIIIIIIII
AAAAAAAAAAAAAAAA111111111111IIIIIIIIIIIIIIIIIIIIIIIIIIIIIIIIIIII
AAAAAAAAAAAAAAAAA111111111111IIIIIIIIIIIIIIIIIIIIIIIIIIIIIIIIIII
AAAAAAAAAAAAAAAAAA111111111111IIIIIIIIIIIIIIIIIIIIIIIIIIIIIIIIII
AAAAAAAAAAAAAAAAAA1A1111111111I1IIIIIIIIIIIIIIIIIIIIIIIIIIIIIIII
AAAAAAAAAAAAAAAAAA1AA111111111I11IIIIIIIIIIIIIIIIIIIIIIIIIIIIIII
AAAAAAAAAAAAAAAAAA1AAA11111111I111IIIIIIIIIIIIIIIIIIIIIIIIIIIIII
AAAAAAAAAAAAAAAAAAAAAA111111111111IIIIIIIIIIIIIIIIIIIIIIIIIIIIII
AAAAAAAAAAAAAAAAAAAAAAA111111111111IIIIIIIIIIIIIIIIIIIIIIIIIIIII
AAAAAAAAAAAAAAAAAAAAAAAA111111111111IIIIIIIIIIIIIIIIIIIIIIIIIIII
AAAAAAAAAAAAAAAAAAAAAAAA1A1111111111I1IIIIIIIIIIIIIIIIIIIIIIIIII
AAAAAAAAAAAAAAAAAAAAAAAA1AA111111111I11IIIIIIIIIIIIIIIIIIIIIIIII
AAAAAAAAAAAAAAAAAAAAAAAA1AAA11111111I111IIIIIIIIIIIIIIIIIIIIIIII
AAAAAAAAAAAAAAAAAAAAAAAAAAAA111111111111IIIIIIIIIIIIIIIIIIIIIIII
AAAAAAAAAAAAAAAAAAAAAAAAAAAAA111111111111IIIIIIIIIIIIIIIIIIIIIII
AAAAAAAAAAAAAAAAAAAAAAAAAAAAAA111111111111IIIIIIIIIIIIIIIIIIIIII
AAAAAAAAAAAAAAAAAAAAAAAAAAAAAA1A1111111111I1IIIIIIIIIIIIIIIIIIII
AAAAAAAAAAAAAAAAAAAAAAAAAAAAAA1AA111111111I11IIIIIIIIIIIIIIIIIII
AAAAAAAAAAAAAAAAAAAAAAAAAAAAAA1AAA11111111I111IIIIIIIIIIIIIIIIII
AAAAAAAAAAAAAAAAAAAAAAAAAAAAAAAAAA111111111111IIIIIIIIIIIIIIIIII
AAAAAAAAAAAAAAAAAAAAAAAAAAAAAAAAAAA111111111111IIIIIIIIIIIIIIIII
AAAAAAAAAAAAAAAAAAAAAAAAAAAAAAAAAAAA111111111111IIIIIIIIIIIIIIII
AAAAAAAAAAAAAAAAAAAAAAAAAAAAAAAAAAAA1A1111111111I1IIIIIIIIIIIIII
AAAAAAAAAAAAAAAAAAAAAAAAAAAAAAAAAAAA1AA111111111I11IIIIIIIIIIIII
AAAAAAAAAAAAAAAAAAAAAAAAAAAAAAAAAAAA1AAA11111111I111IIIIIIIIIIII
AAAAAAAAAAAAAAAAAAAAAAAAAAAAAAAAAAAAAAAA11111111I111IIIIIIIIIIII
AAAAAAAAAAAAAAAAAAAAAAAAAAAAAAAAAAAAAAAAA1111111I1111IIIIIIIIIII
AAAAAAAAAAAAAAAAAAAAAAAAAAAAAAAAAAAAAAAAAA111111I11111IIIIIIIIII
AAAAAAAAAAAAAAAAAAAAAAAAAAAAAAAAAAAAAAAAAA1A1111I11111I1IIIIIIII
AAAAAAAAAAAAAAAAAAAAAAAAAAAAAAAAAAAAAAAAAA1AA111I11111I11IIIIIII
AAAAAAAAAAAAAAAAAAAAAAAAAAAAAAAAAAAAAAAAAA1AAA11I11111I111IIIIII
AAAAAAAAAAAAAAAAAAAAAAAAAAAAAAAAAAAAAAAAAAAAAA111111111111IIIIII
AAAAAAAAAAAAAAAAAAAAAAAAAAAAAAAAAAAAAAAAAAAAAAA111111111111IIIII
AAAAAAAAAAAAAAAAAAAAAAAAAAAAAAAAAAAAAAAAAAAAAAAA111111111111IIII
AAAAAAAAAAAAAAAAAAAAAAAAAAAAAAAAAAAAAAAAAAAAAAAA1A1111111111I1II
AAAAAAAAAAAAAAAAAAAAAAAAAAAAAAAAAAAAAAAAAAAAAAAA1AA111111111I11I
AAAAAAAAAAAAAAAAAAAAAAAAAAAAAAAAAAAAAAAAAAAAAAAA1AAA11111111I111
AAAAAAAAAAAAAAAAAAAAAAAAAAAAAAAAAAAAAAAAAAAAAAAAAAAA111111111111
AAAAAAAAAAAAAAAAAAAAAAAAAAAAAAAAAAAAAAAAAAAAAAAAAAAAA11111111111
AAAAAAAAAAAAAAAAAAAAAAAAAAAAAAAAAAAAAAAAAAAAAAAAAAAAAA1111111111
AAAAAAAAAAAAAAAAAAAAAAAAAAAAAAAAAAAAAAAAAAAAAAAAAAAAAA1A11111111
AAAAAAAAAAAAAAAAAAAAAAAAAAAAAAAAAAAAAAAAAAAAAAAAAAAAAA1AA1111111
AAAAAAAAAAAAAAAAAAAAAAAAAAAAAAAAAAAAAAAAAAAAAAAAAAAAAA1AAA111111
AAAAAAAAAAAAAAAAAAAAAAAAAAAAAAAAAAAAAAAAAAAAAAAAAAAAAAAAAA111111
AAAAAAAAAAAAAAAAAAAAAAAAAAAAAAAAAAAAAAAAAAAAAAAAAAAAAAAAAAA11111
AAAAAAAAAAAAAAAAAAAAAAAAAAAAAAAAAAAAAAAAAAAAAAAAAAAAAAAAAAAA1111
AAAAAAAAAAAAAAAAAAAAAAAAAAAAAAAAAAAAAAAAAAAAAAAAAAAAAAAAAAAA1A11
AAAAAAAAAAAAAAAAAAAAAAAAAAAAAAAAAAAAAAAAAAAAAAAAAAAAAAAAAAAA1AA1
AAAAAAAAAAAAAAAAAAAAAAAAAAAAAAAAAAAAAAAAAAAAAAAAAAAAAAAAAAAA1AAA
AAAAAAAAAAAAAAAAAAAAAAAAAAAAAAAAAAAAAAAAAAAAAAAAAAAAAAAAAAAAAAAA
AIIIII1IIIII1IIIIIIIIIIIIIIIIIIIIIIIIIIIIIIIIIIIIIIIIIIIIIIIIIII
AAIIII11IIII11IIIIIIIIIIIIIIIIIIIIIIIIIIIIIIIIIIIIIIIIIIIIIIIIII
AAAIII111III111IIIIIIIIIIIIIIIIIIIIIIIIIIIIIIIIIIIIIIIIIIIIIIIII
AAAAII1111II1111IIIIIIIIIIIIIIIIIIIIIIIIIIIIIIIIIIIIIIIIIIIIIIII
AAAAAI11111I11111IIIIIIIIIIIIIIIIIIIIIIIIIIIIIIIIIIIIIIIIIIIIIII
AAAAAA111111111111IIIIIIIIIIIIIIIIIIIIIIIIIIIIIIIIIIIIIIIIIIIIII
AAAAAA1A1111111111I1IIIIIIIIIIIIIIIIIIIIIIIIIIIIIIIIIIIIIIIIIIII
AAAAAA1AA111111111I11IIIIIIIIIIIIIIIIIIIIIIIIIIIIIIIIIIIIIIIIIII
AAAAAA1AAA11111111I111IIIIIIIIIIIIIIIIIIIIIIIIIIIIIIIIIIIIIIIIII
AAAAAAAAAA111111111111IIIIIIIIIIIIIIIIIIIIIIIIIIIIIIIIIIIIIIIIII
AAAAAAAAAAA111111111111IIIIIIIIIIIIIIIIIIIIIIIIIIIIIIIIIIIIIIIII
AAAAAAAAAAAA111111111111IIIIIIIIIIIIIIIIIIIIIIIIIIIIIIIIIIIIIIII
AAAAAAAAAAAAA111111111111IIIIIIIIIIIIIIIIIIIIIIIIIIIIIIIIIIIIIII
AAAAAAAAAAAAA1A1111111111I1IIIIIIIIIIIIIIIIIIIIIIIIIIIIIIIIIIIII
AAAAAAAAAAAAAAA111111111111IIIIIIIIIIIIIIIIIIIIIIIIIIIIIIIIIIIII
AAAAAAAAAAAAAAAA111111111111IIIIIIIIIIIIIIIIIIIIIIIIIIIIIIIIIIII
AAAAAAAAAAAAAAAAA111111111111IIIIIIIIIIIIIIIIIIIIIIIIIIIIIIIIIII
AAAAAAAAAAAAAAAAAA111111111111IIIIIIIIIIIIIIIIIIIIIIIIIIIIIIIIII
AAAAAAAAAAAAAAAAAA1A1111111111I1IIIIIIIIIIIIIIIIIIIIIIIIIIIIIIII
AAAAAAAAAAAAAAAAAA1AA111111111I11IIIIIIIIIIIIIIIIIIIIIIIIIIIIIII
AAAAAAAAAAAAAAAAAA1AAA11111111I111IIIIIIIIIIIIIIIIIIIIIIIIIIIIII
AAAAAAAAAAAAAAAAAAAAAA111111111111IIIIIIIIIIIIIIIIIIIIIIIIIIIIII
AAAAAAAAAAAAAAAAAAAAAAA111111111111IIIIIIIIIIIIIIIIIIIIIIIIIIIII
AAAAAAAAAAAAAAAAAAAAAAAA111111111111IIIIIIIIIIIIIIIIIIIIIIIIIIII
AAAAAAAAAAAAAAAAAAAAAAAA1A1111111111I1IIIIIIIIIIIIIIIIIIIIIIIIII
AAAAAAAAAAAAAAAAAAAAAAAA1AA111111111I11IIIIIIIIIIIIIIIIIIIIIIIII
AAAAAAAAAAAAAAAAAAAAAAAA1AAA11111111I111IIIIIIIIIIIIIIIIIIIIIIII
AAAAAAAAAAAAAAAAAAAAAAAAAAAA111111111111IIIIIIIIIIIIIIIIIIIIIIII
AAAAAAAAAAAAAAAAAAAAAAAAAAAAA111111111111IIIIIIIIIIIIIIIIIIIIIII
AAAAAAAAAAAAAAAAAAAAAAAAAAAAAA111111111111IIIIIIIIIIIIIIIIIIIIII
AAAAAAAAAAAAAAAAAAAAAAAAAAAAAA1A1111111111I1IIIIIIIIIIIIIIIIIIII
AAAAAAAAAAAAAAAAAAAAAAAAAAAAAA1AA111111111I11IIIIIIIIIIIIIIIIIII
AAAAAAAAAAAAAAAAAAAAAAAAAAAAAA1AAA11111111I111IIIIIIIIIIIIIIIIII
AAAAAAAAAAAAAAAAAAAAAAAAAAAAAAAAAA111111111111IIIIIIIIIIIIIIIIII
AAAAAAAAAAAAAAAAAAAAAAAAAAAAAAAAAAA111111111111IIIIIIIIIIIIIIIII
AAAAAAAAAAAAAAAAAAAAAAAAAAAAAAAAAAAA111111111111IIIIIIIIIIIIIIII
AAAAAAAAAAAAAAAAAAAAAAAAAAAAAAAAAAAA1A1111111111I1IIIIIIIIIIIIII
AAAAAAAAAAAAAAAAAAAAAAAAAAAAAAAAAAAA1AA111111111I11IIIIIIIIIIIII
AAAAAAAAAAAAAAAAAAAAAAAAAAAAAAAAAAAA1AAA11111111I111IIIIIIIIIIII
AAAAAAAAAAAAAAAAAAAAAAAAAAAAAAAAAAAAAAAA111111111111IIIIIIIIIIII
AAAAAAAAAAAAAAAAAAAAAAAAAAAAAAAAAAAAAAAAA111111111111IIIIIIIIIII
AAAAAAAAAAAAAAAAAAAAAAAAAAAAAAAAAAAAAAAAAA111111111111IIIIIIIIII
AAAAAAAAAAAAAAAAAAAAAAAAAAAAAAAAAAAAAAAAAA1A1111111111I1IIIIIIII
AAAAAAAAAAAAAAAAAAAAAAAAAAAAAAAAAAAAAAAAAA1AA111111111I11IIIIIII
AAAAAAAAAAAAAAAAAAAAAAAAAAAAAAAAAAAAAAAAAA1AAA11111111I111IIIIII
AAAAAAAAAAAAAAAAAAAAAAAAAAAAAAAAAAAAAAAAAAAAAA111111111111IIIIII
AAAAAAAAAAAAAAAAAAAAAAAAAAAAAAAAAAAAAAAAAAAAAAA111111111111IIIII
AAAAAAAAAAAAAAAAAAAAAAAAAAAAAAAAAAAAAAAAAAAAAAAA111111111111IIII
AAAAAAAAAAAAAAAAAAAAAAAAAAAAAAAAAAAAAAAAAAAAAAAA1A1111111111I1II
AAAAAAAAAAAAAAAAAAAAAAAAAAAAAAAAAAAAAAAAAAAAAAAA1AA111111111I11I
AAAAAAAAAAAAAAAAAAAAAAAAAAAAAAAAAAAAAAAAAAAAAAAA1AAA11111111I111
AAAAAAAAAAAAAAAAAAAAAAAAAAAAAAAAAAAAAAAAAAAAAAAAAAAA111111111111
AAAAAAAAAAAAAAAAAAAAAAAAAAAAAAAAAAAAAAAAAAAAAAAAAAAAA11111111111
AAAAAAAAAAAAAAAAAAAAAAAAAAAAAAAAAAAAAAAAAAAAAAAAAAAAAA1111111111
AAAAAAAAAAAAAAAAAAAAAAAAAAAAAAAAAAAAAAAAAAAAAAAAAAAAAA1A11111111
AAAAAAAAAAAAAAAAAAAAAAAAAAAAAAAAAAAAAAAAAAAAAAAAAAAAAA1AA1111111
AAAAAAAAAAAAAAAAAAAAAAAAAAAAAAAAAAAAAAAAAAAAAAAAAAAAAA1AAA111111
AAAAAAAAAAAAAAAAAAAAAAAAAAAAAAAAAAAAAAAAAAAAAAAAAAAAAAAAAA111111
AAAAAAAAAAAAAAAAAAAAAAAAAAAAAAAAAAAAAAAAAAAAAAAAAAAAAAAAAAA11111
AAAAAAAAAAAAAAAAAAAAAAAAAAAAAAAAAAAAAAAAAAAAAAAAAAAAAAAAAAAA1111
AAAAAAAAAAAAAAAAAAAAAAAAAAAAAAAAAAAAAAAAAAAAAAAAAAAAAAAAAAAA1A11
AAAAAAAAAAAAAAAAAAAAAAAAAAAAAAAAAAAAAAAAAAAAAAAAAAAAAAAAAAAA1AA1
AAAAAAAAAAAAAAAAAAAAAAAAAAAAAAAAAAAAAAAAAAAAAAAAAAAAAAAAAAAA1AAA
AAAAAAAAAAAAAAAAAAAAAAAAAAAAAAAAAAAAAAAAAAAAAAAAAAAAAAAAAAAAAAAA
[MLOP] Prefetch Degree Mean: 5.9808
[MLOP] Prefetch Degree SD: 3.67409
[MLOP] Max Score Left Mean (%): 66.2754
[MLOP] Max Score Left SD (%): 12.0502
[MLOP] Max Score Right Mean (%): 79.1326
[MLOP] Max Score Right SD (%): 6.44271
=== CPU 3 L1D Prefetcher Statistics ===
[MLOP] History of tracked zone:
IIIIIIIIIIIIIIIIIIIIIIIIIIIIIIIIIIIIIIIIIIIIIIIIIIIIIIIIIIIIIIII
A111IIIIIIIIIIIIIIIIIIIIIIIIIIIIIIIIIIIIIIIIIIIIIIIIIIIIIIIIIIII
AA111IIIIIIIIIIIIIIIIIIIIIIIIIIIIIIIIIIIIIIIIIIIIIIIIIIIIIIIIIII
AAA111IIIIIIIIIIIIIIIIIIIIIIIIIIIIIIIIIIIIIIIIIIIIIIIIIIIIIIIIII
AAAA111IIIIIIIIIIIIIIIIIIIIIIIIIIIIIIIIIIIIIIIIIIIIIIIIIIIIIIIII
AAAAA111IIIIIIIIIIIIIIIIIIIIIIIIIIIIIIIIIIIIIIIIIIIIIIIIIIIIIIII
AAAAAA111IIIIIIIIIIIIIIIIIIIIIIIIIIIIIIIIIIIIIIIIIIIIIIIIIIIIIII
AAAAAAA111IIIIIIIIIIIIIIIIIIIIIIIIIIIIIIIIIIIIIIIIIIIIIIIIIIIIII
AAAAAAAA111IIIIIIIIIIIIIIIIIIIIIIIIIIIIIIIIIIIIIIIIIIIIIIIIIIIII
AAAAAAAAA111IIIIIIIIIIIIIIIIIIIIIIIIIIIIIIIIIIIIIIIIIIIIIIIIIIII
AAAAAAAAAA111IIIIIIIIIIIIIIIIIIIIIIIIIIIIIIIIIIIIIIIIIIIIIIIIIII
AAAAAAAAAAA111IIIIIIIIIIIIIIIIIIIIIIIIIIIIIIIIIIIIIIIIIIIIIIIIII
AAAAAAAAAAAA111IIIIIIIIIIIIIIIIIIIIIIIIIIIIIIIIIIIIIIIIIIIIIIIII
AAAAAAAAAAAAA111IIIIIIIIIIIIIIIIIIIIIIIIIIIIIIIIIIIIIIIIIIIIIIII
AAAAAAAAAAAAAA111IIIIIIIIIIIIIIIIIIIIIIIIIIIIIIIIIIIIIIIIIIIIIII
AAAAAAAAAAAAAAA111IIIIIIIIIIIIIIIIIIIIIIIIIIIIIIIIIIIIIIIIIIIIII
AAAAAAAAAAAAAAAA111IIIIIIIIIIIIIIIIIIIIIIIIIIIIIIIIIIIIIIIIIIIII
AAAAAAAAAAAAAAAAA111IIIIIIIIIIIIIIIIIIIIIIIIIIIIIIIIIIIIIIIIIIII
AAAAAAAAAAAAAAAAAA111IIIIIIIIIIIIIIIIIIIIIIIIIIIIIIIIIIIIIIIIIII
AAAAAAAAAAAAAAAAAAA111IIIIIIIIIIIIIIIIIIIIIIIIIIIIIIIIIIIIIIIIII
AAAAAAAAAAAAAAAAAAAA111IIIIIIIIIIIIIIIIIIIIIIIIIIIIIIIIIIIIIIIII
AAAAAAAAAAAAAAAAAAAAA111IIIIIIIIIIIIIIIIIIIIIIIIIIIIIIIIIIIIIIII
AAAAAAAAAAAAAAAAAAAAAA111IIIIIIIIIIIIIIIIIIIIIIIIIIIIIIIIIIIIIII
AAAAAAAAAAAAAAAAAAAAAAA111IIIIIIIIIIIIIIIIIIIIIIIIIIIIIIIIIIIIII
AAAAAAAAAAAAAAAAAAAAAAAA111IIIIIIIIIIIIIIIIIIIIIIIIIIIIIIIIIIIII
AAAAAAAAAAAAAAAAAAAAAAAAA111IIIIIIIIIIIIIIIIIIIIIIIIIIIIIIIIIIII
AAAAAAAAAAAAAAAAAAAAAAAAAA111IIIIIIIIIIIIIIIIIIIIIIIIIIIIIIIIIII
AAAAAAAAAAAAAAAAAAAAAAAAAAA111IIIIIIIIIIIIIIIIIIIIIIIIIIIIIIIIII
AAAAAAAAAAAAAAAAAAAAAAAAAAAA111IIIIIIIIIIIIIIIIIIIIIIIIIIIIIIIII
AAAAAAAAAAAAAAAAAAAAAAAAAAAAA111IIIIIIIIIIIIIIIIIIIIIIIIIIIIIIII
AAAAAAAAAAAAAAAAAAAAAAAAAAAAAA111IIIIIIIIIIIIIIIIIIIIIIIIIIIIIII
[MLOP] Prefetch Degree Mean: 6.6035
[MLOP] Prefetch Degree SD: 1.47999
[MLOP] Max Score Left Mean (%): 68.8053
[MLOP] Max Score Left SD (%): 11.0586
[MLOP] Max Score Right Mean (%): 93.5424
[MLOP] Max Score Right SD (%): 2.84347

DRAM Statistics
 CHANNEL 0
 RQ ROW_BUFFER_HIT:   19928380  ROW_BUFFER_MISS:   52695618
 DBUS_CONGESTED:          1
 WQ ROW_BUFFER_HIT:    1306318  ROW_BUFFER_MISS:   14168835  FULL:          0

 AVG_CONGESTED_CYCLE: 3
 All warmup complete: 5
Channel 0 Bank busy for read cycles: 0
Channel 0 Bank busy for write cycles: 0
Channel 0
Rank 0
0banks busy for read cycles: 9691
0banks busy for write cycles: 0
1banks busy for read cycles: 3107821
1banks busy for write cycles: 1653128
2banks busy for read cycles: 8234660
2banks busy for write cycles: 1653125
3banks busy for read cycles: 19552027
3banks busy for write cycles: 1653132
4banks busy for read cycles: 40295149
4banks busy for write cycles: 1654410
5banks busy for read cycles: 76626208
5banks busy for write cycles: 1759100
6banks busy for read cycles: 144694684
6banks busy for write cycles: 5728939
7banks busy for read cycles: 299662020
7banks busy for write cycles: 64680871
8banks busy for read cycles: 748865950
8banks busy for write cycles: 334105418

CPU 0 Branch Prediction Accuracy: 90.9054% MPKI: 10.646 Average ROB Occupancy at Mispredict: 22.2408
Branch types
NOT_BRANCH: 1063200088 88.2932%
BRANCH_DIRECT_JUMP: 2350 0.000195155%
BRANCH_INDIRECT: 10 8.30447e-07%
BRANCH_CONDITIONAL: 140963227 11.7063%
BRANCH_DIRECT_CALL: 2360 0.000195986%
BRANCH_INDIRECT_CALL: 10 8.30447e-07%
BRANCH_RETURN: 2355 0.00019557%
BRANCH_OTHER: 0 0%


CPU 1 Branch Prediction Accuracy: 95.4555% MPKI: 5.14106 Average ROB Occupancy at Mispredict: 176.292
Branch types
NOT_BRANCH: 177374394 88.6872%
BRANCH_DIRECT_JUMP: 0 0%
BRANCH_INDIRECT: 0 0%
BRANCH_CONDITIONAL: 22625435 11.3127%
BRANCH_DIRECT_CALL: 0 0%
BRANCH_INDIRECT_CALL: 0 0%
BRANCH_RETURN: 0 0%
BRANCH_OTHER: 0 0%


CPU 2 Branch Prediction Accuracy: 99.9901% MPKI: 0.0269946 Average ROB Occupancy at Mispredict: 316.596
Branch types
NOT_BRANCH: 650258289 72.4506%
BRANCH_DIRECT_JUMP: 1900 0.000211695%
BRANCH_INDIRECT: 0 0%
BRANCH_CONDITIONAL: 229930933 25.6185%
BRANCH_DIRECT_CALL: 4332907 0.482765%
BRANCH_INDIRECT_CALL: 4331016 0.482554%
BRANCH_RETURN: 8663924 0.965319%
BRANCH_OTHER: 0 0%


CPU 3 Branch Prediction Accuracy: 99.8745% MPKI: 0.0586987 Average ROB Occupancy at Mispredict: 318.4
Branch types
NOT_BRANCH: 1163900927 95.3169%
BRANCH_DIRECT_JUMP: 685 5.60976e-05%
BRANCH_INDIRECT: 0 0%
BRANCH_CONDITIONAL: 57182809 4.68295%
BRANCH_DIRECT_CALL: 585 4.79082e-05%
BRANCH_INDIRECT_CALL: 0 0%
BRANCH_RETURN: 585 4.79082e-05%
BRANCH_OTHER: 0 0%

DRAM PAGES: 1048576
Allocated PAGES: 500995
