
*** ChampSim Multicore Out-of-Order Simulator ***

Warmup Instructions: 50000000
Simulation Instructions: 200000000
Number of CPUs: 4
LLC sets: 8192
LLC ways: 16
Off-chip DRAM Size: 4096 MB Channels: 1 Width: 64-bit Data Rate: 6400 MT/s
CPU 0 runs ./traces/ligra/ligra_PageRankDelta.com-lj.ungraph.gcc_6.3.0_O3.drop_6000M.length_250M.champsimtrace.xz
.xz
CPU 1 runs ./traces/ligra/ligra_PageRankDelta.com-lj.ungraph.gcc_6.3.0_O3.drop_6000M.length_250M.champsimtrace.xz
.xz
CPU 2 runs ./traces/ligra/ligra_PageRankDelta.com-lj.ungraph.gcc_6.3.0_O3.drop_6000M.length_250M.champsimtrace.xz
.xz
CPU 3 runs ./traces/ligra/ligra_PageRankDelta.com-lj.ungraph.gcc_6.3.0_O3.drop_6000M.length_250M.champsimtrace.xz
.xz
BTB has LRU replacement policy
ITLB has LRU replacement policy
DTLB has LRU replacement policy
STLB has LRU replacement policy
L1I has LRU replacement policy
L1D has LRU replacement policy
Initialize SRRIP state for L2C
Initialize DRRIP state for LLC
BTB has LRU replacement policy
ITLB has LRU replacement policy
DTLB has LRU replacement policy
STLB has LRU replacement policy
L1I has LRU replacement policy
L1D has LRU replacement policy
Initialize SRRIP state for L2C
Initialize DRRIP state for LLC
BTB has LRU replacement policy
ITLB has LRU replacement policy
DTLB has LRU replacement policy
STLB has LRU replacement policy
L1I has LRU replacement policy
L1D has LRU replacement policy
Initialize SRRIP state for L2C
Initialize DRRIP state for LLC
BTB has LRU replacement policy
ITLB has LRU replacement policy
DTLB has LRU replacement policy
STLB has LRU replacement policy
L1I has LRU replacement policy
L1D has LRU replacement policy
Initialize SRRIP state for L2C
Initialize DRRIP state for LLC
Heartbeat CPU 0 instructions: 10000000 cycles: 3836064 heartbeat IPC: 2.60684 cumulative IPC: 2.60684 (Simulation time: 0 hr 2 min 19 sec) 
Heartbeat CPU 1 instructions: 10000000 cycles: 3836065 heartbeat IPC: 2.60684 cumulative IPC: 2.60684 (Simulation time: 0 hr 2 min 19 sec) 
Heartbeat CPU 2 instructions: 10000000 cycles: 3836074 heartbeat IPC: 2.60683 cumulative IPC: 2.60683 (Simulation time: 0 hr 2 min 19 sec) 
Heartbeat CPU 3 instructions: 10000000 cycles: 3836076 heartbeat IPC: 2.60683 cumulative IPC: 2.60683 (Simulation time: 0 hr 2 min 19 sec) 
Heartbeat CPU 0 instructions: 20000001 cycles: 7672053 heartbeat IPC: 2.60689 cumulative IPC: 2.60686 (Simulation time: 0 hr 4 min 39 sec) 
Heartbeat CPU 1 instructions: 20000001 cycles: 7672054 heartbeat IPC: 2.60689 cumulative IPC: 2.60686 (Simulation time: 0 hr 4 min 39 sec) 
Heartbeat CPU 2 instructions: 20000001 cycles: 7672066 heartbeat IPC: 2.60689 cumulative IPC: 2.60686 (Simulation time: 0 hr 4 min 39 sec) 
Heartbeat CPU 3 instructions: 20000001 cycles: 7672067 heartbeat IPC: 2.60689 cumulative IPC: 2.60686 (Simulation time: 0 hr 4 min 39 sec) 
Heartbeat CPU 0 instructions: 30000002 cycles: 11508015 heartbeat IPC: 2.60691 cumulative IPC: 2.60688 (Simulation time: 0 hr 6 min 55 sec) 
Heartbeat CPU 1 instructions: 30000002 cycles: 11508016 heartbeat IPC: 2.60691 cumulative IPC: 2.60688 (Simulation time: 0 hr 6 min 55 sec) 
Heartbeat CPU 2 instructions: 30000002 cycles: 11508028 heartbeat IPC: 2.60691 cumulative IPC: 2.60688 (Simulation time: 0 hr 6 min 55 sec) 
Heartbeat CPU 3 instructions: 30000002 cycles: 11508030 heartbeat IPC: 2.60691 cumulative IPC: 2.60688 (Simulation time: 0 hr 6 min 55 sec) 
Heartbeat CPU 0 instructions: 40000002 cycles: 15344054 heartbeat IPC: 2.60686 cumulative IPC: 2.60687 (Simulation time: 0 hr 9 min 26 sec) 
Heartbeat CPU 1 instructions: 40000002 cycles: 15344055 heartbeat IPC: 2.60686 cumulative IPC: 2.60687 (Simulation time: 0 hr 9 min 26 sec) 
Heartbeat CPU 2 instructions: 40000002 cycles: 15344067 heartbeat IPC: 2.60686 cumulative IPC: 2.60687 (Simulation time: 0 hr 9 min 26 sec) 
Heartbeat CPU 3 instructions: 40000002 cycles: 15344069 heartbeat IPC: 2.60686 cumulative IPC: 2.60687 (Simulation time: 0 hr 9 min 26 sec) 
Heartbeat CPU 0 instructions: 50000000 cycles: 19180007 heartbeat IPC: 2.60691 cumulative IPC: 2.60688 (Simulation time: 0 hr 11 min 40 sec) 
Heartbeat CPU 1 instructions: 50000000 cycles: 19180008 heartbeat IPC: 2.60691 cumulative IPC: 2.60688 (Simulation time: 0 hr 11 min 40 sec) 
Heartbeat CPU 2 instructions: 50000000 cycles: 19180020 heartbeat IPC: 2.60691 cumulative IPC: 2.60688 (Simulation time: 0 hr 11 min 40 sec) 
Heartbeat CPU 3 instructions: 50000000 cycles: 19180022 heartbeat IPC: 2.60691 cumulative IPC: 2.60688 (Simulation time: 0 hr 11 min 40 sec) 

Warmup complete CPU 0 instructions: 50000042 cycles: 19180023 (Simulation time: 0 hr 11 min 40 sec) 
Warmup complete CPU 1 instructions: 50000040 cycles: 19180023 (Simulation time: 0 hr 11 min 40 sec) 
Warmup complete CPU 2 instructions: 50000008 cycles: 19180023 (Simulation time: 0 hr 11 min 40 sec) 
Warmup complete CPU 3 instructions: 50000003 cycles: 19180023 (Simulation time: 0 hr 11 min 40 sec) 

Heartbeat CPU 1 instructions: 60000002 cycles: 27690905 heartbeat IPC: 1.17496 cumulative IPC: 1.17496 (Simulation time: 0 hr 14 min 17 sec) 
Heartbeat CPU 2 instructions: 60000002 cycles: 27698182 heartbeat IPC: 1.17396 cumulative IPC: 1.17396 (Simulation time: 0 hr 14 min 17 sec) 
Heartbeat CPU 3 instructions: 60000002 cycles: 27699645 heartbeat IPC: 1.17376 cumulative IPC: 1.17376 (Simulation time: 0 hr 14 min 17 sec) 
Heartbeat CPU 0 instructions: 60000002 cycles: 27701457 heartbeat IPC: 1.17351 cumulative IPC: 1.17351 (Simulation time: 0 hr 14 min 17 sec) 
Heartbeat CPU 1 instructions: 70000001 cycles: 36222036 heartbeat IPC: 1.17218 cumulative IPC: 1.17357 (Simulation time: 0 hr 16 min 35 sec) 
Heartbeat CPU 0 instructions: 70000001 cycles: 36224976 heartbeat IPC: 1.17322 cumulative IPC: 1.17337 (Simulation time: 0 hr 16 min 35 sec) 
Heartbeat CPU 3 instructions: 70000001 cycles: 36228649 heartbeat IPC: 1.17247 cumulative IPC: 1.17311 (Simulation time: 0 hr 16 min 35 sec) 
Heartbeat CPU 2 instructions: 70000001 cycles: 36231872 heartbeat IPC: 1.17183 cumulative IPC: 1.17289 (Simulation time: 0 hr 16 min 35 sec) 
Heartbeat CPU 0 instructions: 80000002 cycles: 44739336 heartbeat IPC: 1.17449 cumulative IPC: 1.17374 (Simulation time: 0 hr 19 min 8 sec) 
Heartbeat CPU 1 instructions: 80000002 cycles: 44742810 heartbeat IPC: 1.1736 cumulative IPC: 1.17358 (Simulation time: 0 hr 19 min 8 sec) 
Heartbeat CPU 2 instructions: 80000002 cycles: 44745337 heartbeat IPC: 1.17461 cumulative IPC: 1.17346 (Simulation time: 0 hr 19 min 8 sec) 
Heartbeat CPU 3 instructions: 80000002 cycles: 44748041 heartbeat IPC: 1.17379 cumulative IPC: 1.17334 (Simulation time: 0 hr 19 min 8 sec) 
Heartbeat CPU 0 instructions: 90000000 cycles: 53254571 heartbeat IPC: 1.17437 cumulative IPC: 1.1739 (Simulation time: 0 hr 21 min 59 sec) 
Heartbeat CPU 1 instructions: 90000000 cycles: 53257370 heartbeat IPC: 1.17446 cumulative IPC: 1.1738 (Simulation time: 0 hr 21 min 59 sec) 
Heartbeat CPU 2 instructions: 90000000 cycles: 53261566 heartbeat IPC: 1.17423 cumulative IPC: 1.17366 (Simulation time: 0 hr 21 min 59 sec) 
Heartbeat CPU 3 instructions: 90000000 cycles: 53263638 heartbeat IPC: 1.17432 cumulative IPC: 1.17358 (Simulation time: 0 hr 21 min 59 sec) 
Heartbeat CPU 0 instructions: 100000000 cycles: 61766584 heartbeat IPC: 1.17481 cumulative IPC: 1.17408 (Simulation time: 0 hr 24 min 47 sec) 
Heartbeat CPU 1 instructions: 100000000 cycles: 61777257 heartbeat IPC: 1.17372 cumulative IPC: 1.17378 (Simulation time: 0 hr 24 min 47 sec) 
Heartbeat CPU 2 instructions: 100000000 cycles: 61783719 heartbeat IPC: 1.17341 cumulative IPC: 1.17361 (Simulation time: 0 hr 24 min 47 sec) 
Heartbeat CPU 3 instructions: 100000000 cycles: 61784255 heartbeat IPC: 1.17362 cumulative IPC: 1.17359 (Simulation time: 0 hr 24 min 47 sec) 
Heartbeat CPU 0 instructions: 110000000 cycles: 70278822 heartbeat IPC: 1.17478 cumulative IPC: 1.1742 (Simulation time: 0 hr 27 min 34 sec) 
Heartbeat CPU 1 instructions: 110000000 cycles: 70293318 heartbeat IPC: 1.17425 cumulative IPC: 1.17386 (Simulation time: 0 hr 27 min 35 sec) 
Heartbeat CPU 2 instructions: 110000000 cycles: 70301188 heartbeat IPC: 1.17406 cumulative IPC: 1.17368 (Simulation time: 0 hr 27 min 35 sec) 
Heartbeat CPU 3 instructions: 110000000 cycles: 70310679 heartbeat IPC: 1.17282 cumulative IPC: 1.17346 (Simulation time: 0 hr 27 min 35 sec) 
Heartbeat CPU 0 instructions: 120000002 cycles: 78794464 heartbeat IPC: 1.17431 cumulative IPC: 1.17421 (Simulation time: 0 hr 30 min 11 sec) 
Heartbeat CPU 1 instructions: 120000002 cycles: 78818834 heartbeat IPC: 1.17295 cumulative IPC: 1.17373 (Simulation time: 0 hr 30 min 12 sec) 
Heartbeat CPU 2 instructions: 120000002 cycles: 78824148 heartbeat IPC: 1.1733 cumulative IPC: 1.17363 (Simulation time: 0 hr 30 min 12 sec) 
Heartbeat CPU 3 instructions: 120000002 cycles: 78834033 heartbeat IPC: 1.17325 cumulative IPC: 1.17343 (Simulation time: 0 hr 30 min 12 sec) 
Heartbeat CPU 0 instructions: 130000000 cycles: 87310910 heartbeat IPC: 1.1742 cumulative IPC: 1.17421 (Simulation time: 0 hr 32 min 54 sec) 
Heartbeat CPU 1 instructions: 130000000 cycles: 87331890 heartbeat IPC: 1.17467 cumulative IPC: 1.17385 (Simulation time: 0 hr 32 min 54 sec) 
Heartbeat CPU 2 instructions: 130000000 cycles: 87337468 heartbeat IPC: 1.17463 cumulative IPC: 1.17375 (Simulation time: 0 hr 32 min 54 sec) 
Heartbeat CPU 3 instructions: 130000000 cycles: 87348801 heartbeat IPC: 1.17443 cumulative IPC: 1.17356 (Simulation time: 0 hr 32 min 55 sec) 
Heartbeat CPU 0 instructions: 140000000 cycles: 95827999 heartbeat IPC: 1.17411 cumulative IPC: 1.1742 (Simulation time: 0 hr 35 min 38 sec) 
Heartbeat CPU 1 instructions: 140000000 cycles: 95855960 heartbeat IPC: 1.17315 cumulative IPC: 1.17377 (Simulation time: 0 hr 35 min 38 sec) 
Heartbeat CPU 2 instructions: 140000000 cycles: 95857124 heartbeat IPC: 1.17376 cumulative IPC: 1.17375 (Simulation time: 0 hr 35 min 38 sec) 
Heartbeat CPU 3 instructions: 140000000 cycles: 95879452 heartbeat IPC: 1.17224 cumulative IPC: 1.17341 (Simulation time: 0 hr 35 min 38 sec) 
Heartbeat CPU 0 instructions: 150000001 cycles: 104352818 heartbeat IPC: 1.17305 cumulative IPC: 1.17408 (Simulation time: 0 hr 38 min 21 sec) 
Heartbeat CPU 1 instructions: 150000001 cycles: 104373732 heartbeat IPC: 1.17402 cumulative IPC: 1.1738 (Simulation time: 0 hr 38 min 22 sec) 
Heartbeat CPU 2 instructions: 150000001 cycles: 104376117 heartbeat IPC: 1.17385 cumulative IPC: 1.17376 (Simulation time: 0 hr 38 min 22 sec) 
Heartbeat CPU 3 instructions: 150000001 cycles: 104397216 heartbeat IPC: 1.17402 cumulative IPC: 1.17347 (Simulation time: 0 hr 38 min 22 sec) 
Heartbeat CPU 0 instructions: 160000001 cycles: 112872585 heartbeat IPC: 1.17374 cumulative IPC: 1.17405 (Simulation time: 0 hr 40 min 44 sec) 
Heartbeat CPU 1 instructions: 160000001 cycles: 112898435 heartbeat IPC: 1.17306 cumulative IPC: 1.17373 (Simulation time: 0 hr 40 min 44 sec) 
Heartbeat CPU 2 instructions: 160000001 cycles: 112901026 heartbeat IPC: 1.17303 cumulative IPC: 1.1737 (Simulation time: 0 hr 40 min 44 sec) 
Heartbeat CPU 3 instructions: 160000001 cycles: 112924697 heartbeat IPC: 1.17268 cumulative IPC: 1.1734 (Simulation time: 0 hr 40 min 45 sec) 
Heartbeat CPU 0 instructions: 170000000 cycles: 121397371 heartbeat IPC: 1.17305 cumulative IPC: 1.17397 (Simulation time: 0 hr 43 min 16 sec) 
Heartbeat CPU 1 instructions: 170000000 cycles: 121419960 heartbeat IPC: 1.1735 cumulative IPC: 1.17371 (Simulation time: 0 hr 43 min 16 sec) 
Heartbeat CPU 2 instructions: 170000000 cycles: 121421516 heartbeat IPC: 1.17364 cumulative IPC: 1.17369 (Simulation time: 0 hr 43 min 16 sec) 
Heartbeat CPU 3 instructions: 170000000 cycles: 121444417 heartbeat IPC: 1.17375 cumulative IPC: 1.17343 (Simulation time: 0 hr 43 min 17 sec) 
Heartbeat CPU 0 instructions: 180000000 cycles: 129911457 heartbeat IPC: 1.17452 cumulative IPC: 1.17401 (Simulation time: 0 hr 45 min 51 sec) 
Heartbeat CPU 1 instructions: 180000000 cycles: 129930669 heartbeat IPC: 1.17499 cumulative IPC: 1.17381 (Simulation time: 0 hr 45 min 52 sec) 
Heartbeat CPU 2 instructions: 180000000 cycles: 129940944 heartbeat IPC: 1.17379 cumulative IPC: 1.1737 (Simulation time: 0 hr 45 min 52 sec) 
Heartbeat CPU 3 instructions: 180000000 cycles: 129962043 heartbeat IPC: 1.17404 cumulative IPC: 1.17348 (Simulation time: 0 hr 45 min 52 sec) 
Heartbeat CPU 0 instructions: 190000001 cycles: 138430117 heartbeat IPC: 1.17389 cumulative IPC: 1.174 (Simulation time: 0 hr 48 min 33 sec) 
Heartbeat CPU 1 instructions: 190000001 cycles: 138453701 heartbeat IPC: 1.17329 cumulative IPC: 1.17377 (Simulation time: 0 hr 48 min 33 sec) 
Heartbeat CPU 2 instructions: 190000001 cycles: 138459492 heartbeat IPC: 1.17391 cumulative IPC: 1.17371 (Simulation time: 0 hr 48 min 33 sec) 
Heartbeat CPU 3 instructions: 190000001 cycles: 138481377 heartbeat IPC: 1.1738 cumulative IPC: 1.1735 (Simulation time: 0 hr 48 min 34 sec) 
Heartbeat CPU 0 instructions: 200000001 cycles: 146964250 heartbeat IPC: 1.17177 cumulative IPC: 1.17385 (Simulation time: 0 hr 51 min 5 sec) 
Heartbeat CPU 1 instructions: 200000001 cycles: 146984720 heartbeat IPC: 1.17219 cumulative IPC: 1.17367 (Simulation time: 0 hr 51 min 5 sec) 
Heartbeat CPU 2 instructions: 200000001 cycles: 146993024 heartbeat IPC: 1.17185 cumulative IPC: 1.17359 (Simulation time: 0 hr 51 min 5 sec) 
Heartbeat CPU 3 instructions: 200000001 cycles: 147017525 heartbeat IPC: 1.17149 cumulative IPC: 1.17336 (Simulation time: 0 hr 51 min 6 sec) 
Heartbeat CPU 0 instructions: 210000002 cycles: 156567295 heartbeat IPC: 1.04134 cumulative IPC: 1.16459 (Simulation time: 0 hr 53 min 55 sec) 
Heartbeat CPU 1 instructions: 210000002 cycles: 156590002 heartbeat IPC: 1.04109 cumulative IPC: 1.1644 (Simulation time: 0 hr 53 min 56 sec) 
Heartbeat CPU 2 instructions: 210000002 cycles: 156646372 heartbeat IPC: 1.03591 cumulative IPC: 1.16392 (Simulation time: 0 hr 53 min 56 sec) 
Heartbeat CPU 3 instructions: 210000002 cycles: 156728081 heartbeat IPC: 1.02981 cumulative IPC: 1.16323 (Simulation time: 0 hr 53 min 57 sec) 
Heartbeat CPU 0 instructions: 220000000 cycles: 223273047 heartbeat IPC: 0.149912 cumulative IPC: 0.832953 (Simulation time: 1 hr 1 min 58 sec) 
Heartbeat CPU 2 instructions: 220000000 cycles: 223602113 heartbeat IPC: 0.149352 cumulative IPC: 0.831613 (Simulation time: 1 hr 2 min 0 sec) 
Heartbeat CPU 1 instructions: 220000000 cycles: 223624431 heartbeat IPC: 0.149177 cumulative IPC: 0.831522 (Simulation time: 1 hr 2 min 0 sec) 
Heartbeat CPU 3 instructions: 220000000 cycles: 223766880 heartbeat IPC: 0.149167 cumulative IPC: 0.830943 (Simulation time: 1 hr 2 min 1 sec) 
Heartbeat CPU 0 instructions: 230000002 cycles: 290168405 heartbeat IPC: 0.149487 cumulative IPC: 0.664235 (Simulation time: 1 hr 9 min 52 sec) 
Heartbeat CPU 1 instructions: 230000002 cycles: 290545776 heartbeat IPC: 0.149429 cumulative IPC: 0.663311 (Simulation time: 1 hr 9 min 55 sec) 
Heartbeat CPU 2 instructions: 230000002 cycles: 290598418 heartbeat IPC: 0.149262 cumulative IPC: 0.663183 (Simulation time: 1 hr 9 min 55 sec) 
Heartbeat CPU 3 instructions: 230000001 cycles: 290601143 heartbeat IPC: 0.149624 cumulative IPC: 0.663176 (Simulation time: 1 hr 9 min 55 sec) 
Heartbeat CPU 0 instructions: 240000003 cycles: 356959580 heartbeat IPC: 0.14972 cumulative IPC: 0.562497 (Simulation time: 1 hr 18 min 7 sec) 
Heartbeat CPU 3 instructions: 240000003 cycles: 357470738 heartbeat IPC: 0.149545 cumulative IPC: 0.561647 (Simulation time: 1 hr 18 min 11 sec) 
Heartbeat CPU 1 instructions: 240000003 cycles: 357516095 heartbeat IPC: 0.14932 cumulative IPC: 0.561572 (Simulation time: 1 hr 18 min 11 sec) 
Heartbeat CPU 2 instructions: 240000002 cycles: 357692318 heartbeat IPC: 0.149045 cumulative IPC: 0.561279 (Simulation time: 1 hr 18 min 12 sec) 
*** Reached end of trace for Core: 0 Repeating trace: ./traces/ligra/ligra_PageRankDelta.com-lj.ungraph.gcc_6.3.0_O3.drop_6000M.length_250M.champsimtrace.xz
Heartbeat CPU 0 instructions: 250000000 cycles: 423910610 heartbeat IPC: 0.149363 cumulative IPC: 0.494156 (Simulation time: 1 hr 25 min 51 sec) 
Finished CPU 0 instructions: 200000000 cycles: 404734034 cumulative IPC: 0.494152 (Simulation time: 1 hr 25 min 51 sec) 
*** Reached end of trace for Core: 1 Repeating trace: ./traces/ligra/ligra_PageRankDelta.com-lj.ungraph.gcc_6.3.0_O3.drop_6000M.length_250M.champsimtrace.xz
Heartbeat CPU 1 instructions: 250000000 cycles: 424412442 heartbeat IPC: 0.149485 cumulative IPC: 0.493544 (Simulation time: 1 hr 25 min 55 sec) 
Finished CPU 1 instructions: 200000000 cycles: 405236880 cumulative IPC: 0.493539 (Simulation time: 1 hr 25 min 55 sec) 
*** Reached end of trace for Core: 3 Repeating trace: ./traces/ligra/ligra_PageRankDelta.com-lj.ungraph.gcc_6.3.0_O3.drop_6000M.length_250M.champsimtrace.xz
Heartbeat CPU 3 instructions: 250000002 cycles: 424477382 heartbeat IPC: 0.149239 cumulative IPC: 0.493465 (Simulation time: 1 hr 25 min 56 sec) 
Finished CPU 3 instructions: 200000003 cycles: 405297360 cumulative IPC: 0.493465 (Simulation time: 1 hr 25 min 56 sec) 
*** Reached end of trace for Core: 2 Repeating trace: ./traces/ligra/ligra_PageRankDelta.com-lj.ungraph.gcc_6.3.0_O3.drop_6000M.length_250M.champsimtrace.xz
Heartbeat CPU 2 instructions: 250000002 cycles: 424518324 heartbeat IPC: 0.149642 cumulative IPC: 0.493415 (Simulation time: 1 hr 25 min 56 sec) 
Finished CPU 2 instructions: 200000000 cycles: 405339634 cumulative IPC: 0.493413 (Simulation time: 1 hr 25 min 56 sec) 

ChampSim completed all CPUs

Total Simulation Statistics (not including warmup)

CPU 0 cumulative IPC: 0.49501 instructions: 200647365 cycles: 405339634
ITLB TOTAL     ACCESS:   34195866  HIT:   34195857  MISS:          9  HIT %:        100  MISS %: 2.6319e-05   MPKI: 4.48548e-05
ITLB LOAD      ACCESS:          0  HIT:          0  MISS:          0  HIT %:       -nan  MISS %:       -nan   MPKI: 0
ITLB RFO       ACCESS:          0  HIT:          0  MISS:          0  HIT %:       -nan  MISS %:       -nan   MPKI: 0
ITLB PREFETCH  ACCESS:          0  HIT:          0  MISS:          0  HIT %:       -nan  MISS %:       -nan   MPKI: 0
ITLB WRITEBACK ACCESS:          0  HIT:          0  MISS:          0  HIT %:       -nan  MISS %:       -nan   MPKI: 0
DTLB TOTAL     ACCESS:   22082564  HIT:   22022770  MISS:      59794  HIT %:    99.7292  MISS %:   0.270775   MPKI: 0.298005
DTLB LOAD      ACCESS:          0  HIT:          0  MISS:          0  HIT %:       -nan  MISS %:       -nan   MPKI: 0
DTLB RFO       ACCESS:          0  HIT:          0  MISS:          0  HIT %:       -nan  MISS %:       -nan   MPKI: 0
DTLB PREFETCH  ACCESS:          0  HIT:          0  MISS:          0  HIT %:       -nan  MISS %:       -nan   MPKI: 0
DTLB WRITEBACK ACCESS:          0  HIT:          0  MISS:          0  HIT %:       -nan  MISS %:       -nan   MPKI: 0
STLB TOTAL     ACCESS:     824823  HIT:     765019  MISS:      59804  HIT %:    92.7495  MISS %:    7.25053   MPKI: 0.298055
STLB LOAD      ACCESS:          0  HIT:          0  MISS:          0  HIT %:       -nan  MISS %:       -nan   MPKI: 0
STLB RFO       ACCESS:          0  HIT:          0  MISS:          0  HIT %:       -nan  MISS %:       -nan   MPKI: 0
STLB PREFETCH  ACCESS:          0  HIT:          0  MISS:          0  HIT %:       -nan  MISS %:       -nan   MPKI: 0
STLB WRITEBACK ACCESS:          0  HIT:          0  MISS:          0  HIT %:       -nan  MISS %:       -nan   MPKI: 0
L1D TOTAL     ACCESS:   18073919  HIT:   14246122  MISS:    3827797  HIT %:    78.8214  MISS %:    21.1786   MPKI: 19.0772
L1D LOAD      ACCESS:   14227347  HIT:   13446387  MISS:     780960  HIT %:    94.5109  MISS %:    5.48915   MPKI: 3.8922
L1D RFO       ACCESS:    2711746  HIT:     799732  MISS:    1912014  HIT %:    29.4914  MISS %:    70.5086   MPKI: 9.52923
L1D PREFETCH  ACCESS:    1134826  HIT:          3  MISS:    1134823  HIT %: 0.000264358  MISS %:    99.9997   MPKI: 5.65581
L1D WRITEBACK ACCESS:          0  HIT:          0  MISS:          0  HIT %:       -nan  MISS %:       -nan   MPKI: 0
L1I TOTAL     ACCESS:   34210775  HIT:   34210702  MISS:         73  HIT %:    99.9998  MISS %: 0.000213383   MPKI: 0.000363822
L1I LOAD      ACCESS:   34210775  HIT:   34210702  MISS:         73  HIT %:    99.9998  MISS %: 0.000213383   MPKI: 0.000363822
L1I RFO       ACCESS:          0  HIT:          0  MISS:          0  HIT %:       -nan  MISS %:       -nan   MPKI: 0
L1I PREFETCH  ACCESS:          0  HIT:          0  MISS:          0  HIT %:       -nan  MISS %:       -nan   MPKI: 0
L1I WRITEBACK ACCESS:          0  HIT:          0  MISS:          0  HIT %:       -nan  MISS %:       -nan   MPKI: 0
L2C TOTAL     ACCESS:    5799710  HIT:    1659764  MISS:    4139946  HIT %:    28.6181  MISS %:    71.3819   MPKI: 20.6329
L2C LOAD      ACCESS:     181378  HIT:       1448  MISS:     179930  HIT %:   0.798333  MISS %:    99.2017   MPKI: 0.896747
L2C RFO       ACCESS:    1912014  HIT:          0  MISS:    1912014  HIT %:          0  MISS %:        100   MPKI: 9.52923
L2C PREFETCH  ACCESS:    1734478  HIT:          0  MISS:    1734478  HIT %:          0  MISS %:        100   MPKI: 8.64441
L2C WRITEBACK ACCESS:    1912029  HIT:    1606140  MISS:     305889  HIT %:    84.0019  MISS %:    15.9981   MPKI: 1.52451
PSCL5 TOTAL     ACCESS:      59804  HIT:      59804  MISS:          0  HIT %:        100  MISS %:          0   MPKI: 0
PSCL5 LOAD      ACCESS:          0  HIT:          0  MISS:          0  HIT %:       -nan  MISS %:       -nan   MPKI: 0
PSCL5 RFO       ACCESS:          0  HIT:          0  MISS:          0  HIT %:       -nan  MISS %:       -nan   MPKI: 0
PSCL5 PREFETCH  ACCESS:          0  HIT:          0  MISS:          0  HIT %:       -nan  MISS %:       -nan   MPKI: 0
PSCL5 WRITEBACK ACCESS:          0  HIT:          0  MISS:          0  HIT %:       -nan  MISS %:       -nan   MPKI: 0
PSCL4 TOTAL     ACCESS:      59804  HIT:      59804  MISS:          0  HIT %:        100  MISS %:          0   MPKI: 0
PSCL4 LOAD      ACCESS:          0  HIT:          0  MISS:          0  HIT %:       -nan  MISS %:       -nan   MPKI: 0
PSCL4 RFO       ACCESS:          0  HIT:          0  MISS:          0  HIT %:       -nan  MISS %:       -nan   MPKI: 0
PSCL4 PREFETCH  ACCESS:          0  HIT:          0  MISS:          0  HIT %:       -nan  MISS %:       -nan   MPKI: 0
PSCL4 WRITEBACK ACCESS:          0  HIT:          0  MISS:          0  HIT %:       -nan  MISS %:       -nan   MPKI: 0
PSCL3 TOTAL     ACCESS:      59804  HIT:      59804  MISS:          0  HIT %:        100  MISS %:          0   MPKI: 0
PSCL3 LOAD      ACCESS:          0  HIT:          0  MISS:          0  HIT %:       -nan  MISS %:       -nan   MPKI: 0
PSCL3 RFO       ACCESS:          0  HIT:          0  MISS:          0  HIT %:       -nan  MISS %:       -nan   MPKI: 0
PSCL3 PREFETCH  ACCESS:          0  HIT:          0  MISS:          0  HIT %:       -nan  MISS %:       -nan   MPKI: 0
PSCL3 WRITEBACK ACCESS:          0  HIT:          0  MISS:          0  HIT %:       -nan  MISS %:       -nan   MPKI: 0
PSCL2 TOTAL     ACCESS:      59804  HIT:      59676  MISS:        128  HIT %:     99.786  MISS %:   0.214033   MPKI: 0.000637935
PSCL2 LOAD      ACCESS:          0  HIT:          0  MISS:          0  HIT %:       -nan  MISS %:       -nan   MPKI: 0
PSCL2 RFO       ACCESS:          0  HIT:          0  MISS:          0  HIT %:       -nan  MISS %:       -nan   MPKI: 0
PSCL2 PREFETCH  ACCESS:          0  HIT:          0  MISS:          0  HIT %:       -nan  MISS %:       -nan   MPKI: 0
PSCL2 WRITEBACK ACCESS:          0  HIT:          0  MISS:          0  HIT %:       -nan  MISS %:       -nan   MPKI: 0
=== CPU 0 L1D Prefetcher Statistics ===
[MLOP] History of tracked zone:
IIIIIIIIIIIIIIIIIIIIIIIIIIIIIIIIIIIIIIIIIIIIIIIIIIIIIIIIIIIIIIII
A11IIIIIIIIIIIIIIIIIIIIIIIIIIIIIIIIIIIIIIIIIIIIIIIIIIIIIIIIIIIII
AA11IIIIIIIIIIIIIIIIIIIIIIIIIIIIIIIIIIIIIIIIIIIIIIIIIIIIIIIIIIII
AAA11IIIIIIIIIIIIIIIIIIIIIIIIIIIIIIIIIIIIIIIIIIIIIIIIIIIIIIIIIII
AAAA11IIIIIIIIIIIIIIIIIIIIIIIIIIIIIIIIIIIIIIIIIIIIIIIIIIIIIIIIII
AAAAA11IIIIIIIIIIIIIIIIIIIIIIIIIIIIIIIIIIIIIIIIIIIIIIIIIIIIIIIII
AAAAAA11IIIIIIIIIIIIIIIIIIIIIIIIIIIIIIIIIIIIIIIIIIIIIIIIIIIIIIII
AAAAAAA11IIIIIIIIIIIIIIIIIIIIIIIIIIIIIIIIIIIIIIIIIIIIIIIIIIIIIII
AAAAAAAA11IIIIIIIIIIIIIIIIIIIIIIIIIIIIIIIIIIIIIIIIIIIIIIIIIIIIII
AAAAAAAAA11IIIIIIIIIIIIIIIIIIIIIIIIIIIIIIIIIIIIIIIIIIIIIIIIIIIII
AAAAAAAAAA11IIIIIIIIIIIIIIIIIIIIIIIIIIIIIIIIIIIIIIIIIIIIIIIIIIII
AAAAAAAAAAA11IIIIIIIIIIIIIIIIIIIIIIIIIIIIIIIIIIIIIIIIIIIIIIIIIII
AAAAAAAAAAAA11IIIIIIIIIIIIIIIIIIIIIIIIIIIIIIIIIIIIIIIIIIIIIIIIII
AAAAAAAAAAAAA11IIIIIIIIIIIIIIIIIIIIIIIIIIIIIIIIIIIIIIIIIIIIIIIII
AAAAAAAAAAAAAA11IIIIIIIIIIIIIIIIIIIIIIIIIIIIIIIIIIIIIIIIIIIIIIII
AAAAAAAAAAAAAAA11IIIIIIIIIIIIIIIIIIIIIIIIIIIIIIIIIIIIIIIIIIIIIII
AAAAAAAAAAAAAAAA11IIIIIIIIIIIIIIIIIIIIIIIIIIIIIIIIIIIIIIIIIIIIII
AAAAAAAAAAAAAAAAA11IIIIIIIIIIIIIIIIIIIIIIIIIIIIIIIIIIIIIIIIIIIII
AAAAAAAAAAAAAAAAAA11IIIIIIIIIIIIIIIIIIIIIIIIIIIIIIIIIIIIIIIIIIII
AAAAAAAAAAAAAAAAAAA11IIIIIIIIIIIIIIIIIIIIIIIIIIIIIIIIIIIIIIIIIII
AAAAAAAAAAAAAAAAAAAA11IIIIIIIIIIIIIIIIIIIIIIIIIIIIIIIIIIIIIIIIII
AAAAAAAAAAAAAAAAAAAAA11IIIIIIIIIIIIIIIIIIIIIIIIIIIIIIIIIIIIIIIII
AAAAAAAAAAAAAAAAAAAAAA11IIIIIIIIIIIIIIIIIIIIIIIIIIIIIIIIIIIIIIII
AAAAAAAAAAAAAAAAAAAAAAA11IIIIIIIIIIIIIIIIIIIIIIIIIIIIIIIIIIIIIII
AAAAAAAAAAAAAAAAAAAAAAAA11IIIIIIIIIIIIIIIIIIIIIIIIIIIIIIIIIIIIII
AAAAAAAAAAAAAAAAAAAAAAAAA11IIIIIIIIIIIIIIIIIIIIIIIIIIIIIIIIIIIII
AAAAAAAAAAAAAAAAAAAAAAAAAA11IIIIIIIIIIIIIIIIIIIIIIIIIIIIIIIIIIII
AAAAAAAAAAAAAAAAAAAAAAAAAAA11IIIIIIIIIIIIIIIIIIIIIIIIIIIIIIIIIII
AAAAAAAAAAAAAAAAAAAAAAAAAAAA11IIIIIIIIIIIIIIIIIIIIIIIIIIIIIIIIII
AAAAAAAAAAAAAAAAAAAAAAAAAAAAA11IIIIIIIIIIIIIIIIIIIIIIIIIIIIIIIII
AAAAAAAAAAAAAAAAAAAAAAAAAAAAAA11IIIIIIIIIIIIIIIIIIIIIIIIIIIIIIII
AAAAAAAAAAAAAAAAAAAAAAAAAAAAAAA11IIIIIIIIIIIIIIIIIIIIIIIIIIIIIII
AAAAAAAAAAAAAAAAAAAAAAAAAAAAAAAA11IIIIIIIIIIIIIIIIIIIIIIIIIIIIII
AAAAAAAAAAAAAAAAAAAAAAAAAAAAAAAAA11IIIIIIIIIIIIIIIIIIIIIIIIIIIII
AAAAAAAAAAAAAAAAAAAAAAAAAAAAAAAAAA11IIIIIIIIIIIIIIIIIIIIIIIIIIII
AAAAAAAAAAAAAAAAAAAAAAAAAAAAAAAAAAA11IIIIIIIIIIIIIIIIIIIIIIIIIII
AAAAAAAAAAAAAAAAAAAAAAAAAAAAAAAAAAAA11IIIIIIIIIIIIIIIIIIIIIIIIII
AAAAAAAAAAAAAAAAAAAAAAAAAAAAAAAAAAAAA11IIIIIIIIIIIIIIIIIIIIIIIII
AAAAAAAAAAAAAAAAAAAAAAAAAAAAAAAAAAAAAA11IIIIIIIIIIIIIIIIIIIIIIII
AAAAAAAAAAAAAAAAAAAAAAAAAAAAAAAAAAAAAAA11IIIIIIIIIIIIIIIIIIIIIII
AAAAAAAAAAAAAAAAAAAAAAAAAAAAAAAAAAAAAAAA11IIIIIIIIIIIIIIIIIIIIII
AAAAAAAAAAAAAAAAAAAAAAAAAAAAAAAAAAAAAAAAA11IIIIIIIIIIIIIIIIIIIII
AAAAAAAAAAAAAAAAAAAAAAAAAAAAAAAAAAAAAAAAAA11IIIIIIIIIIIIIIIIIIII
AAAAAAAAAAAAAAAAAAAAAAAAAAAAAAAAAAAAAAAAAAA11IIIIIIIIIIIIIIIIIII
AAAAAAAAAAAAAAAAAAAAAAAAAAAAAAAAAAAAAAAAAAAA11IIIIIIIIIIIIIIIIII
AAAAAAAAAAAAAAAAAAAAAAAAAAAAAAAAAAAAAAAAAAAAA11IIIIIIIIIIIIIIIII
AAAAAAAAAAAAAAAAAAAAAAAAAAAAAAAAAAAAAAAAAAAAAA11IIIIIIIIIIIIIIII
AAAAAAAAAAAAAAAAAAAAAAAAAAAAAAAAAAAAAAAAAAAAAAA11IIIIIIIIIIIIIII
AAAAAAAAAAAAAAAAAAAAAAAAAAAAAAAAAAAAAAAAAAAAAAAA11IIIIIIIIIIIIII
AAAAAAAAAAAAAAAAAAAAAAAAAAAAAAAAAAAAAAAAAAAAAAAAA11IIIIIIIIIIIII
AAAAAAAAAAAAAAAAAAAAAAAAAAAAAAAAAAAAAAAAAAAAAAAAAA11IIIIIIIIIIII
AAAAAAAAAAAAAAAAAAAAAAAAAAAAAAAAAAAAAAAAAAAAAAAAAAA11IIIIIIIIIII
AAAAAAAAAAAAAAAAAAAAAAAAAAAAAAAAAAAAAAAAAAAAAAAAAAAA11IIIIIIIIII
AAAAAAAAAAAAAAAAAAAAAAAAAAAAAAAAAAAAAAAAAAAAAAAAAAAAA11IIIIIIIII
AAAAAAAAAAAAAAAAAAAAAAAAAAAAAAAAAAAAAAAAAAAAAAAAAAAAAA11IIIIIIII
AAAAAAAAAAAAAAAAAAAAAAAAAAAAAAAAAAAAAAAAAAAAAAAAAAAAAAA11IIIIIII
AAAAAAAAAAAAAAAAAAAAAAAAAAAAAAAAAAAAAAAAAAAAAAAAAAAAAAAA11IIIIII
AAAAAAAAAAAAAAAAAAAAAAAAAAAAAAAAAAAAAAAAAAAAAAAAAAAAAAAAA11IIIII
AAAAAAAAAAAAAAAAAAAAAAAAAAAAAAAAAAAAAAAAAAAAAAAAAAAAAAAAAA11IIII
AAAAAAAAAAAAAAAAAAAAAAAAAAAAAAAAAAAAAAAAAAAAAAAAAAAAAAAAAAA11III
AAAAAAAAAAAAAAAAAAAAAAAAAAAAAAAAAAAAAAAAAAAAAAAAAAAAAAAAAAAA11II
AAAAAAAAAAAAAAAAAAAAAAAAAAAAAAAAAAAAAAAAAAAAAAAAAAAAAAAAAAAAA11I
AAAAAAAAAAAAAAAAAAAAAAAAAAAAAAAAAAAAAAAAAAAAAAAAAAAAAAAAAAAAAA11
AAAAAAAAAAAAAAAAAAAAAAAAAAAAAAAAAAAAAAAAAAAAAAAAAAAAAAAAAAAAAAA1
AAAAAAAAAAAAAAAAAAAAAAAAAAAAAAAAAAAAAAAAAAAAAAAAAAAAAAAAAAAAAAAA
[MLOP] Prefetch Degree Mean: 12.6476
[MLOP] Prefetch Degree SD: 1.07165
[MLOP] Max Score Left Mean (%): 79.3278
[MLOP] Max Score Left SD (%): 1.94949
[MLOP] Max Score Right Mean (%): 98.1097
[MLOP] Max Score Right SD (%): 0.723328
LLC TOTAL     ACCESS:    5745908  HIT:    1835722  MISS:    3910186  HIT %:    31.9483  MISS %:    68.0517   MPKI: 19.4879
LLC LOAD      ACCESS:     179930  HIT:        356  MISS:     179574  HIT %:   0.197855  MISS %:    99.8021   MPKI: 0.894973
LLC RFO       ACCESS:    1912014  HIT:          0  MISS:    1912014  HIT %:          0  MISS %:        100   MPKI: 9.52923
LLC PREFETCH  ACCESS:    1734478  HIT:          0  MISS:    1734478  HIT %:          0  MISS %:        100   MPKI: 8.64441
LLC WRITEBACK ACCESS:    1911851  HIT:    1835347  MISS:      76504  HIT %:    95.9984  MISS %:    4.00157   MPKI: 0.381286

RAW hits: 1
Loads Generated: 36298505
Loads sent to L1D: 36298503
Stores Generated: 9555167
Stores sent to L1D: 9555167

CPU 1 cumulative IPC: 0.493658 instructions: 200099142 cycles: 405339634
ITLB TOTAL     ACCESS:   34104578  HIT:   34104569  MISS:          9  HIT %:        100  MISS %: 2.63894e-05   MPKI: 4.49777e-05
ITLB LOAD      ACCESS:          0  HIT:          0  MISS:          0  HIT %:       -nan  MISS %:       -nan   MPKI: 0
ITLB RFO       ACCESS:          0  HIT:          0  MISS:          0  HIT %:       -nan  MISS %:       -nan   MPKI: 0
ITLB PREFETCH  ACCESS:          0  HIT:          0  MISS:          0  HIT %:       -nan  MISS %:       -nan   MPKI: 0
ITLB WRITEBACK ACCESS:          0  HIT:          0  MISS:          0  HIT %:       -nan  MISS %:       -nan   MPKI: 0
DTLB TOTAL     ACCESS:   22031856  HIT:   21972113  MISS:      59743  HIT %:    99.7288  MISS %:   0.271166   MPKI: 0.298567
DTLB LOAD      ACCESS:          0  HIT:          0  MISS:          0  HIT %:       -nan  MISS %:       -nan   MPKI: 0
DTLB RFO       ACCESS:          0  HIT:          0  MISS:          0  HIT %:       -nan  MISS %:       -nan   MPKI: 0
DTLB PREFETCH  ACCESS:          0  HIT:          0  MISS:          0  HIT %:       -nan  MISS %:       -nan   MPKI: 0
DTLB WRITEBACK ACCESS:          0  HIT:          0  MISS:          0  HIT %:       -nan  MISS %:       -nan   MPKI: 0
STLB TOTAL     ACCESS:     823540  HIT:     763787  MISS:      59753  HIT %:    92.7444  MISS %:    7.25563   MPKI: 0.298617
STLB LOAD      ACCESS:          0  HIT:          0  MISS:          0  HIT %:       -nan  MISS %:       -nan   MPKI: 0
STLB RFO       ACCESS:          0  HIT:          0  MISS:          0  HIT %:       -nan  MISS %:       -nan   MPKI: 0
STLB PREFETCH  ACCESS:          0  HIT:          0  MISS:          0  HIT %:       -nan  MISS %:       -nan   MPKI: 0
STLB WRITEBACK ACCESS:          0  HIT:          0  MISS:          0  HIT %:       -nan  MISS %:       -nan   MPKI: 0
L1D TOTAL     ACCESS:   18031264  HIT:   14206733  MISS:    3824531  HIT %:    78.7894  MISS %:    21.2106   MPKI: 19.1132
L1D LOAD      ACCESS:   14189279  HIT:   13407707  MISS:     781572  HIT %:    94.4918  MISS %:    5.50819   MPKI: 3.90592
L1D RFO       ACCESS:    2709409  HIT:     799023  MISS:    1910386  HIT %:    29.4907  MISS %:    70.5093   MPKI: 9.5472
L1D PREFETCH  ACCESS:    1132576  HIT:          3  MISS:    1132573  HIT %: 0.000264883  MISS %:    99.9997   MPKI: 5.66006
L1D WRITEBACK ACCESS:          0  HIT:          0  MISS:          0  HIT %:       -nan  MISS %:       -nan   MPKI: 0
L1I TOTAL     ACCESS:   34119434  HIT:   34119361  MISS:         73  HIT %:    99.9998  MISS %: 0.000213954   MPKI: 0.000364819
L1I LOAD      ACCESS:   34119434  HIT:   34119361  MISS:         73  HIT %:    99.9998  MISS %: 0.000213954   MPKI: 0.000364819
L1I RFO       ACCESS:          0  HIT:          0  MISS:          0  HIT %:       -nan  MISS %:       -nan   MPKI: 0
L1I PREFETCH  ACCESS:          0  HIT:          0  MISS:          0  HIT %:       -nan  MISS %:       -nan   MPKI: 0
L1I WRITEBACK ACCESS:          0  HIT:          0  MISS:          0  HIT %:       -nan  MISS %:       -nan   MPKI: 0
L2C TOTAL     ACCESS:    5794788  HIT:    1647901  MISS:    4146887  HIT %:    28.4376  MISS %:    71.5624   MPKI: 20.7242
L2C LOAD      ACCESS:     181590  HIT:       1511  MISS:     180079  HIT %:   0.832094  MISS %:    99.1679   MPKI: 0.899949
L2C RFO       ACCESS:    1910386  HIT:          0  MISS:    1910386  HIT %:          0  MISS %:        100   MPKI: 9.5472
L2C PREFETCH  ACCESS:    1732628  HIT:          0  MISS:    1732628  HIT %:          0  MISS %:        100   MPKI: 8.65885
L2C WRITEBACK ACCESS:    1910424  HIT:    1594261  MISS:     316163  HIT %:    83.4506  MISS %:    16.5494   MPKI: 1.58003
PSCL5 TOTAL     ACCESS:      59753  HIT:      59753  MISS:          0  HIT %:        100  MISS %:          0   MPKI: 0
PSCL5 LOAD      ACCESS:          0  HIT:          0  MISS:          0  HIT %:       -nan  MISS %:       -nan   MPKI: 0
PSCL5 RFO       ACCESS:          0  HIT:          0  MISS:          0  HIT %:       -nan  MISS %:       -nan   MPKI: 0
PSCL5 PREFETCH  ACCESS:          0  HIT:          0  MISS:          0  HIT %:       -nan  MISS %:       -nan   MPKI: 0
PSCL5 WRITEBACK ACCESS:          0  HIT:          0  MISS:          0  HIT %:       -nan  MISS %:       -nan   MPKI: 0
PSCL4 TOTAL     ACCESS:      59753  HIT:      59753  MISS:          0  HIT %:        100  MISS %:          0   MPKI: 0
PSCL4 LOAD      ACCESS:          0  HIT:          0  MISS:          0  HIT %:       -nan  MISS %:       -nan   MPKI: 0
PSCL4 RFO       ACCESS:          0  HIT:          0  MISS:          0  HIT %:       -nan  MISS %:       -nan   MPKI: 0
PSCL4 PREFETCH  ACCESS:          0  HIT:          0  MISS:          0  HIT %:       -nan  MISS %:       -nan   MPKI: 0
PSCL4 WRITEBACK ACCESS:          0  HIT:          0  MISS:          0  HIT %:       -nan  MISS %:       -nan   MPKI: 0
PSCL3 TOTAL     ACCESS:      59753  HIT:      59753  MISS:          0  HIT %:        100  MISS %:          0   MPKI: 0
PSCL3 LOAD      ACCESS:          0  HIT:          0  MISS:          0  HIT %:       -nan  MISS %:       -nan   MPKI: 0
PSCL3 RFO       ACCESS:          0  HIT:          0  MISS:          0  HIT %:       -nan  MISS %:       -nan   MPKI: 0
PSCL3 PREFETCH  ACCESS:          0  HIT:          0  MISS:          0  HIT %:       -nan  MISS %:       -nan   MPKI: 0
PSCL3 WRITEBACK ACCESS:          0  HIT:          0  MISS:          0  HIT %:       -nan  MISS %:       -nan   MPKI: 0
PSCL2 TOTAL     ACCESS:      59753  HIT:      59625  MISS:        128  HIT %:    99.7858  MISS %:   0.214215   MPKI: 0.000639683
PSCL2 LOAD      ACCESS:          0  HIT:          0  MISS:          0  HIT %:       -nan  MISS %:       -nan   MPKI: 0
PSCL2 RFO       ACCESS:          0  HIT:          0  MISS:          0  HIT %:       -nan  MISS %:       -nan   MPKI: 0
PSCL2 PREFETCH  ACCESS:          0  HIT:          0  MISS:          0  HIT %:       -nan  MISS %:       -nan   MPKI: 0
PSCL2 WRITEBACK ACCESS:          0  HIT:          0  MISS:          0  HIT %:       -nan  MISS %:       -nan   MPKI: 0
=== CPU 1 L1D Prefetcher Statistics ===
[MLOP] History of tracked zone:
IIIIIIIIIIIIIIIIIIIIIIIIIIIIIIIIIIIIIIIIIIIIIIIIIIIIIIIIIIIIIIII
A11IIIIIIIIIIIIIIIIIIIIIIIIIIIIIIIIIIIIIIIIIIIIIIIIIIIIIIIIIIIII
AA11IIIIIIIIIIIIIIIIIIIIIIIIIIIIIIIIIIIIIIIIIIIIIIIIIIIIIIIIIIII
AAA11IIIIIIIIIIIIIIIIIIIIIIIIIIIIIIIIIIIIIIIIIIIIIIIIIIIIIIIIIII
AAAA11IIIIIIIIIIIIIIIIIIIIIIIIIIIIIIIIIIIIIIIIIIIIIIIIIIIIIIIIII
AAAAA11IIIIIIIIIIIIIIIIIIIIIIIIIIIIIIIIIIIIIIIIIIIIIIIIIIIIIIIII
AAAAAA11IIIIIIIIIIIIIIIIIIIIIIIIIIIIIIIIIIIIIIIIIIIIIIIIIIIIIIII
AAAAAAA11IIIIIIIIIIIIIIIIIIIIIIIIIIIIIIIIIIIIIIIIIIIIIIIIIIIIIII
AAAAAAAA11IIIIIIIIIIIIIIIIIIIIIIIIIIIIIIIIIIIIIIIIIIIIIIIIIIIIII
AAAAAAAAA11IIIIIIIIIIIIIIIIIIIIIIIIIIIIIIIIIIIIIIIIIIIIIIIIIIIII
AAAAAAAAAA11IIIIIIIIIIIIIIIIIIIIIIIIIIIIIIIIIIIIIIIIIIIIIIIIIIII
AAAAAAAAAAA11IIIIIIIIIIIIIIIIIIIIIIIIIIIIIIIIIIIIIIIIIIIIIIIIIII
AAAAAAAAAAAA11IIIIIIIIIIIIIIIIIIIIIIIIIIIIIIIIIIIIIIIIIIIIIIIIII
AAAAAAAAAAAAA11IIIIIIIIIIIIIIIIIIIIIIIIIIIIIIIIIIIIIIIIIIIIIIIII
AAAAAAAAAAAAAA11IIIIIIIIIIIIIIIIIIIIIIIIIIIIIIIIIIIIIIIIIIIIIIII
AAAAAAAAAAAAAAA11IIIIIIIIIIIIIIIIIIIIIIIIIIIIIIIIIIIIIIIIIIIIIII
AAAAAAAAAAAAAAAA11IIIIIIIIIIIIIIIIIIIIIIIIIIIIIIIIIIIIIIIIIIIIII
AAAAAAAAAAAAAAAAA11IIIIIIIIIIIIIIIIIIIIIIIIIIIIIIIIIIIIIIIIIIIII
AAAAAAAAAAAAAAAAAA11IIIIIIIIIIIIIIIIIIIIIIIIIIIIIIIIIIIIIIIIIIII
AAAAAAAAAAAAAAAAAAA11IIIIIIIIIIIIIIIIIIIIIIIIIIIIIIIIIIIIIIIIIII
AAAAAAAAAAAAAAAAAAAA11IIIIIIIIIIIIIIIIIIIIIIIIIIIIIIIIIIIIIIIIII
AAAAAAAAAAAAAAAAAAAAA11IIIIIIIIIIIIIIIIIIIIIIIIIIIIIIIIIIIIIIIII
AAAAAAAAAAAAAAAAAAAAAA11IIIIIIIIIIIIIIIIIIIIIIIIIIIIIIIIIIIIIIII
AAAAAAAAAAAAAAAAAAAAAAA11IIIIIIIIIIIIIIIIIIIIIIIIIIIIIIIIIIIIIII
AAAAAAAAAAAAAAAAAAAAAAAA11IIIIIIIIIIIIIIIIIIIIIIIIIIIIIIIIIIIIII
AAAAAAAAAAAAAAAAAAAAAAAAA11IIIIIIIIIIIIIIIIIIIIIIIIIIIIIIIIIIIII
AAAAAAAAAAAAAAAAAAAAAAAAAA11IIIIIIIIIIIIIIIIIIIIIIIIIIIIIIIIIIII
AAAAAAAAAAAAAAAAAAAAAAAAAAA11IIIIIIIIIIIIIIIIIIIIIIIIIIIIIIIIIII
AAAAAAAAAAAAAAAAAAAAAAAAAAAA11IIIIIIIIIIIIIIIIIIIIIIIIIIIIIIIIII
AAAAAAAAAAAAAAAAAAAAAAAAAAAAA11IIIIIIIIIIIIIIIIIIIIIIIIIIIIIIIII
AAAAAAAAAAAAAAAAAAAAAAAAAAAAAA11IIIIIIIIIIIIIIIIIIIIIIIIIIIIIIII
AAAAAAAAAAAAAAAAAAAAAAAAAAAAAAA11IIIIIIIIIIIIIIIIIIIIIIIIIIIIIII
AAAAAAAAAAAAAAAAAAAAAAAAAAAAAAAA11IIIIIIIIIIIIIIIIIIIIIIIIIIIIII
AAAAAAAAAAAAAAAAAAAAAAAAAAAAAAAAA11IIIIIIIIIIIIIIIIIIIIIIIIIIIII
AAAAAAAAAAAAAAAAAAAAAAAAAAAAAAAAAA11IIIIIIIIIIIIIIIIIIIIIIIIIIII
AAAAAAAAAAAAAAAAAAAAAAAAAAAAAAAAAAA11IIIIIIIIIIIIIIIIIIIIIIIIIII
AAAAAAAAAAAAAAAAAAAAAAAAAAAAAAAAAAAA11IIIIIIIIIIIIIIIIIIIIIIIIII
AAAAAAAAAAAAAAAAAAAAAAAAAAAAAAAAAAAAA11IIIIIIIIIIIIIIIIIIIIIIIII
AAAAAAAAAAAAAAAAAAAAAAAAAAAAAAAAAAAAAA11IIIIIIIIIIIIIIIIIIIIIIII
AAAAAAAAAAAAAAAAAAAAAAAAAAAAAAAAAAAAAAA11IIIIIIIIIIIIIIIIIIIIIII
AAAAAAAAAAAAAAAAAAAAAAAAAAAAAAAAAAAAAAAA11IIIIIIIIIIIIIIIIIIIIII
AAAAAAAAAAAAAAAAAAAAAAAAAAAAAAAAAAAAAAAAA11IIIIIIIIIIIIIIIIIIIII
AAAAAAAAAAAAAAAAAAAAAAAAAAAAAAAAAAAAAAAAAA11IIIIIIIIIIIIIIIIIIII
AAAAAAAAAAAAAAAAAAAAAAAAAAAAAAAAAAAAAAAAAAA11IIIIIIIIIIIIIIIIIII
AAAAAAAAAAAAAAAAAAAAAAAAAAAAAAAAAAAAAAAAAAAA11IIIIIIIIIIIIIIIIII
AAAAAAAAAAAAAAAAAAAAAAAAAAAAAAAAAAAAAAAAAAAAA11IIIIIIIIIIIIIIIII
AAAAAAAAAAAAAAAAAAAAAAAAAAAAAAAAAAAAAAAAAAAAAA11IIIIIIIIIIIIIIII
AAAAAAAAAAAAAAAAAAAAAAAAAAAAAAAAAAAAAAAAAAAAAAA11IIIIIIIIIIIIIII
AAAAAAAAAAAAAAAAAAAAAAAAAAAAAAAAAAAAAAAAAAAAAAAA11IIIIIIIIIIIIII
AAAAAAAAAAAAAAAAAAAAAAAAAAAAAAAAAAAAAAAAAAAAAAAAA11IIIIIIIIIIIII
AAAAAAAAAAAAAAAAAAAAAAAAAAAAAAAAAAAAAAAAAAAAAAAAAA11IIIIIIIIIIII
AAAAAAAAAAAAAAAAAAAAAAAAAAAAAAAAAAAAAAAAAAAAAAAAAAA11IIIIIIIIIII
AAAAAAAAAAAAAAAAAAAAAAAAAAAAAAAAAAAAAAAAAAAAAAAAAAAA11IIIIIIIIII
AAAAAAAAAAAAAAAAAAAAAAAAAAAAAAAAAAAAAAAAAAAAAAAAAAAAA11IIIIIIIII
AAAAAAAAAAAAAAAAAAAAAAAAAAAAAAAAAAAAAAAAAAAAAAAAAAAAAA11IIIIIIII
AAAAAAAAAAAAAAAAAAAAAAAAAAAAAAAAAAAAAAAAAAAAAAAAAAAAAAA11IIIIIII
AAAAAAAAAAAAAAAAAAAAAAAAAAAAAAAAAAAAAAAAAAAAAAAAAAAAAAAA11IIIIII
AAAAAAAAAAAAAAAAAAAAAAAAAAAAAAAAAAAAAAAAAAAAAAAAAAAAAAAAA11IIIII
AAAAAAAAAAAAAAAAAAAAAAAAAAAAAAAAAAAAAAAAAAAAAAAAAAAAAAAAAA11IIII
AAAAAAAAAAAAAAAAAAAAAAAAAAAAAAAAAAAAAAAAAAAAAAAAAAAAAAAAAAA11III
AAAAAAAAAAAAAAAAAAAAAAAAAAAAAAAAAAAAAAAAAAAAAAAAAAAAAAAAAAAA11II
AAAAAAAAAAAAAAAAAAAAAAAAAAAAAAAAAAAAAAAAAAAAAAAAAAAAAAAAAAAAA11I
AAAAAAAAAAAAAAAAAAAAAAAAAAAAAAAAAAAAAAAAAAAAAAAAAAAAAAAAAAAAAA11
AAAAAAAAAAAAAAAAAAAAAAAAAAAAAAAAAAAAAAAAAAAAAAAAAAAAAAAAAAAAAAA1
AAAAAAAAAAAAAAAAAAAAAAAAAAAAAAAAAAAAAAAAAAAAAAAAAAAAAAAAAAAAAAAA
[MLOP] Prefetch Degree Mean: 12.6339
[MLOP] Prefetch Degree SD: 1.07006
[MLOP] Max Score Left Mean (%): 79.2639
[MLOP] Max Score Left SD (%): 2.00828
[MLOP] Max Score Right Mean (%): 98.1458
[MLOP] Max Score Right SD (%): 0.720454
LLC TOTAL     ACCESS:    5740828  HIT:    1837187  MISS:    3903641  HIT %:    32.0021  MISS %:    67.9979   MPKI: 19.5085
LLC LOAD      ACCESS:     180079  HIT:        285  MISS:     179794  HIT %:   0.158264  MISS %:    99.8417   MPKI: 0.898525
LLC RFO       ACCESS:    1910386  HIT:          0  MISS:    1910386  HIT %:          0  MISS %:        100   MPKI: 9.5472
LLC PREFETCH  ACCESS:    1732628  HIT:          0  MISS:    1732628  HIT %:          0  MISS %:        100   MPKI: 8.65885
LLC WRITEBACK ACCESS:    1910104  HIT:    1836896  MISS:      73208  HIT %:    96.1673  MISS %:    3.83267   MPKI: 0.365859

RAW hits: 1
Loads Generated: 36194093
Loads sent to L1D: 36194091
Stores Generated: 9542135
Stores sent to L1D: 9542136

CPU 2 cumulative IPC: 0.493413 instructions: 200000000 cycles: 405339634
ITLB TOTAL     ACCESS:   34087176  HIT:   34087167  MISS:          9  HIT %:        100  MISS %: 2.64029e-05   MPKI: 4.5e-05
ITLB LOAD      ACCESS:          0  HIT:          0  MISS:          0  HIT %:       -nan  MISS %:       -nan   MPKI: 0
ITLB RFO       ACCESS:          0  HIT:          0  MISS:          0  HIT %:       -nan  MISS %:       -nan   MPKI: 0
ITLB PREFETCH  ACCESS:          0  HIT:          0  MISS:          0  HIT %:       -nan  MISS %:       -nan   MPKI: 0
ITLB WRITEBACK ACCESS:          0  HIT:          0  MISS:          0  HIT %:       -nan  MISS %:       -nan   MPKI: 0
DTLB TOTAL     ACCESS:   22021518  HIT:   21961788  MISS:      59730  HIT %:    99.7288  MISS %:   0.271235   MPKI: 0.29865
DTLB LOAD      ACCESS:          0  HIT:          0  MISS:          0  HIT %:       -nan  MISS %:       -nan   MPKI: 0
DTLB RFO       ACCESS:          0  HIT:          0  MISS:          0  HIT %:       -nan  MISS %:       -nan   MPKI: 0
DTLB PREFETCH  ACCESS:          0  HIT:          0  MISS:          0  HIT %:       -nan  MISS %:       -nan   MPKI: 0
DTLB WRITEBACK ACCESS:          0  HIT:          0  MISS:          0  HIT %:       -nan  MISS %:       -nan   MPKI: 0
STLB TOTAL     ACCESS:     823161  HIT:     763421  MISS:      59740  HIT %:    92.7426  MISS %:    7.25739   MPKI: 0.2987
STLB LOAD      ACCESS:          0  HIT:          0  MISS:          0  HIT %:       -nan  MISS %:       -nan   MPKI: 0
STLB RFO       ACCESS:          0  HIT:          0  MISS:          0  HIT %:       -nan  MISS %:       -nan   MPKI: 0
STLB PREFETCH  ACCESS:          0  HIT:          0  MISS:          0  HIT %:       -nan  MISS %:       -nan   MPKI: 0
STLB WRITEBACK ACCESS:          0  HIT:          0  MISS:          0  HIT %:       -nan  MISS %:       -nan   MPKI: 0
L1D TOTAL     ACCESS:   18018814  HIT:   14194917  MISS:    3823897  HIT %:    78.7783  MISS %:    21.2217   MPKI: 19.1195
L1D LOAD      ACCESS:   14183098  HIT:   13402864  MISS:     780234  HIT %:    94.4988  MISS %:    5.50115   MPKI: 3.90117
L1D RFO       ACCESS:    2702141  HIT:     792049  MISS:    1910092  HIT %:    29.3119  MISS %:    70.6881   MPKI: 9.55046
L1D PREFETCH  ACCESS:    1133575  HIT:          4  MISS:    1133571  HIT %: 0.000352866  MISS %:    99.9996   MPKI: 5.66786
L1D WRITEBACK ACCESS:          0  HIT:          0  MISS:          0  HIT %:       -nan  MISS %:       -nan   MPKI: 0
L1I TOTAL     ACCESS:   34102025  HIT:   34101952  MISS:         73  HIT %:    99.9998  MISS %: 0.000214064   MPKI: 0.000365
L1I LOAD      ACCESS:   34102025  HIT:   34101952  MISS:         73  HIT %:    99.9998  MISS %: 0.000214064   MPKI: 0.000365
L1I RFO       ACCESS:          0  HIT:          0  MISS:          0  HIT %:       -nan  MISS %:       -nan   MPKI: 0
L1I PREFETCH  ACCESS:          0  HIT:          0  MISS:          0  HIT %:       -nan  MISS %:       -nan   MPKI: 0
L1I WRITEBACK ACCESS:          0  HIT:          0  MISS:          0  HIT %:       -nan  MISS %:       -nan   MPKI: 0
L2C TOTAL     ACCESS:    5793817  HIT:    1655059  MISS:    4138758  HIT %:     28.566  MISS %:     71.434   MPKI: 20.6938
L2C LOAD      ACCESS:     180364  HIT:       1496  MISS:     178868  HIT %:   0.829434  MISS %:    99.1706   MPKI: 0.89434
L2C RFO       ACCESS:    1910092  HIT:          0  MISS:    1910092  HIT %:          0  MISS %:        100   MPKI: 9.55046
L2C PREFETCH  ACCESS:    1733514  HIT:          0  MISS:    1733514  HIT %:          0  MISS %:        100   MPKI: 8.66757
L2C WRITEBACK ACCESS:    1910103  HIT:    1601444  MISS:     308659  HIT %:    83.8407  MISS %:    16.1593   MPKI: 1.5433
PSCL5 TOTAL     ACCESS:      59740  HIT:      59740  MISS:          0  HIT %:        100  MISS %:          0   MPKI: 0
PSCL5 LOAD      ACCESS:          0  HIT:          0  MISS:          0  HIT %:       -nan  MISS %:       -nan   MPKI: 0
PSCL5 RFO       ACCESS:          0  HIT:          0  MISS:          0  HIT %:       -nan  MISS %:       -nan   MPKI: 0
PSCL5 PREFETCH  ACCESS:          0  HIT:          0  MISS:          0  HIT %:       -nan  MISS %:       -nan   MPKI: 0
PSCL5 WRITEBACK ACCESS:          0  HIT:          0  MISS:          0  HIT %:       -nan  MISS %:       -nan   MPKI: 0
PSCL4 TOTAL     ACCESS:      59740  HIT:      59740  MISS:          0  HIT %:        100  MISS %:          0   MPKI: 0
PSCL4 LOAD      ACCESS:          0  HIT:          0  MISS:          0  HIT %:       -nan  MISS %:       -nan   MPKI: 0
PSCL4 RFO       ACCESS:          0  HIT:          0  MISS:          0  HIT %:       -nan  MISS %:       -nan   MPKI: 0
PSCL4 PREFETCH  ACCESS:          0  HIT:          0  MISS:          0  HIT %:       -nan  MISS %:       -nan   MPKI: 0
PSCL4 WRITEBACK ACCESS:          0  HIT:          0  MISS:          0  HIT %:       -nan  MISS %:       -nan   MPKI: 0
PSCL3 TOTAL     ACCESS:      59740  HIT:      59740  MISS:          0  HIT %:        100  MISS %:          0   MPKI: 0
PSCL3 LOAD      ACCESS:          0  HIT:          0  MISS:          0  HIT %:       -nan  MISS %:       -nan   MPKI: 0
PSCL3 RFO       ACCESS:          0  HIT:          0  MISS:          0  HIT %:       -nan  MISS %:       -nan   MPKI: 0
PSCL3 PREFETCH  ACCESS:          0  HIT:          0  MISS:          0  HIT %:       -nan  MISS %:       -nan   MPKI: 0
PSCL3 WRITEBACK ACCESS:          0  HIT:          0  MISS:          0  HIT %:       -nan  MISS %:       -nan   MPKI: 0
PSCL2 TOTAL     ACCESS:      59740  HIT:      59615  MISS:        125  HIT %:    99.7908  MISS %:    0.20924   MPKI: 0.000625
PSCL2 LOAD      ACCESS:          0  HIT:          0  MISS:          0  HIT %:       -nan  MISS %:       -nan   MPKI: 0
PSCL2 RFO       ACCESS:          0  HIT:          0  MISS:          0  HIT %:       -nan  MISS %:       -nan   MPKI: 0
PSCL2 PREFETCH  ACCESS:          0  HIT:          0  MISS:          0  HIT %:       -nan  MISS %:       -nan   MPKI: 0
PSCL2 WRITEBACK ACCESS:          0  HIT:          0  MISS:          0  HIT %:       -nan  MISS %:       -nan   MPKI: 0
=== CPU 2 L1D Prefetcher Statistics ===
[MLOP] History of tracked zone:
IIIIIIIIIIIIIIIIIIIIIIIIIIIIIIIIIIIIIIIIIIIIIIIIIIIIIIIIIIIIIIII
A11IIIIIIIIIIIIIIIIIIIIIIIIIIIIIIIIIIIIIIIIIIIIIIIIIIIIIIIIIIIII
AA11IIIIIIIIIIIIIIIIIIIIIIIIIIIIIIIIIIIIIIIIIIIIIIIIIIIIIIIIIIII
AAA11IIIIIIIIIIIIIIIIIIIIIIIIIIIIIIIIIIIIIIIIIIIIIIIIIIIIIIIIIII
AAAA11IIIIIIIIIIIIIIIIIIIIIIIIIIIIIIIIIIIIIIIIIIIIIIIIIIIIIIIIII
AAAAA11IIIIIIIIIIIIIIIIIIIIIIIIIIIIIIIIIIIIIIIIIIIIIIIIIIIIIIIII
AAAAAA11IIIIIIIIIIIIIIIIIIIIIIIIIIIIIIIIIIIIIIIIIIIIIIIIIIIIIIII
AAAAAAA11IIIIIIIIIIIIIIIIIIIIIIIIIIIIIIIIIIIIIIIIIIIIIIIIIIIIIII
AAAAAAAA11IIIIIIIIIIIIIIIIIIIIIIIIIIIIIIIIIIIIIIIIIIIIIIIIIIIIII
AAAAAAAAA11IIIIIIIIIIIIIIIIIIIIIIIIIIIIIIIIIIIIIIIIIIIIIIIIIIIII
AAAAAAAAAA11IIIIIIIIIIIIIIIIIIIIIIIIIIIIIIIIIIIIIIIIIIIIIIIIIIII
AAAAAAAAAAA11IIIIIIIIIIIIIIIIIIIIIIIIIIIIIIIIIIIIIIIIIIIIIIIIIII
AAAAAAAAAAAA11IIIIIIIIIIIIIIIIIIIIIIIIIIIIIIIIIIIIIIIIIIIIIIIIII
AAAAAAAAAAAAA11IIIIIIIIIIIIIIIIIIIIIIIIIIIIIIIIIIIIIIIIIIIIIIIII
AAAAAAAAAAAAAA11IIIIIIIIIIIIIIIIIIIIIIIIIIIIIIIIIIIIIIIIIIIIIIII
AAAAAAAAAAAAAAA11IIIIIIIIIIIIIIIIIIIIIIIIIIIIIIIIIIIIIIIIIIIIIII
AAAAAAAAAAAAAAAA11IIIIIIIIIIIIIIIIIIIIIIIIIIIIIIIIIIIIIIIIIIIIII
AAAAAAAAAAAAAAAAA11IIIIIIIIIIIIIIIIIIIIIIIIIIIIIIIIIIIIIIIIIIIII
AAAAAAAAAAAAAAAAAA11IIIIIIIIIIIIIIIIIIIIIIIIIIIIIIIIIIIIIIIIIIII
AAAAAAAAAAAAAAAAAAA11IIIIIIIIIIIIIIIIIIIIIIIIIIIIIIIIIIIIIIIIIII
AAAAAAAAAAAAAAAAAAAA11IIIIIIIIIIIIIIIIIIIIIIIIIIIIIIIIIIIIIIIIII
AAAAAAAAAAAAAAAAAAAAA11IIIIIIIIIIIIIIIIIIIIIIIIIIIIIIIIIIIIIIIII
AAAAAAAAAAAAAAAAAAAAAA11IIIIIIIIIIIIIIIIIIIIIIIIIIIIIIIIIIIIIIII
AAAAAAAAAAAAAAAAAAAAAAA11IIIIIIIIIIIIIIIIIIIIIIIIIIIIIIIIIIIIIII
AAAAAAAAAAAAAAAAAAAAAAAA11IIIIIIIIIIIIIIIIIIIIIIIIIIIIIIIIIIIIII
AAAAAAAAAAAAAAAAAAAAAAAAA11IIIIIIIIIIIIIIIIIIIIIIIIIIIIIIIIIIIII
AAAAAAAAAAAAAAAAAAAAAAAAAA11IIIIIIIIIIIIIIIIIIIIIIIIIIIIIIIIIIII
AAAAAAAAAAAAAAAAAAAAAAAAAAA11IIIIIIIIIIIIIIIIIIIIIIIIIIIIIIIIIII
AAAAAAAAAAAAAAAAAAAAAAAAAAAA11IIIIIIIIIIIIIIIIIIIIIIIIIIIIIIIIII
AAAAAAAAAAAAAAAAAAAAAAAAAAAAA11IIIIIIIIIIIIIIIIIIIIIIIIIIIIIIIII
AAAAAAAAAAAAAAAAAAAAAAAAAAAAAA11IIIIIIIIIIIIIIIIIIIIIIIIIIIIIIII
AAAAAAAAAAAAAAAAAAAAAAAAAAAAAAA11IIIIIIIIIIIIIIIIIIIIIIIIIIIIIII
AAAAAAAAAAAAAAAAAAAAAAAAAAAAAAAA11IIIIIIIIIIIIIIIIIIIIIIIIIIIIII
AAAAAAAAAAAAAAAAAAAAAAAAAAAAAAAAA11IIIIIIIIIIIIIIIIIIIIIIIIIIIII
AAAAAAAAAAAAAAAAAAAAAAAAAAAAAAAAAA11IIIIIIIIIIIIIIIIIIIIIIIIIIII
AAAAAAAAAAAAAAAAAAAAAAAAAAAAAAAAAAA11IIIIIIIIIIIIIIIIIIIIIIIIIII
AAAAAAAAAAAAAAAAAAAAAAAAAAAAAAAAAAAA11IIIIIIIIIIIIIIIIIIIIIIIIII
AAAAAAAAAAAAAAAAAAAAAAAAAAAAAAAAAAAAA11IIIIIIIIIIIIIIIIIIIIIIIII
AAAAAAAAAAAAAAAAAAAAAAAAAAAAAAAAAAAAAA11IIIIIIIIIIIIIIIIIIIIIIII
AAAAAAAAAAAAAAAAAAAAAAAAAAAAAAAAAAAAAAA11IIIIIIIIIIIIIIIIIIIIIII
AAAAAAAAAAAAAAAAAAAAAAAAAAAAAAAAAAAAAAAA11IIIIIIIIIIIIIIIIIIIIII
AAAAAAAAAAAAAAAAAAAAAAAAAAAAAAAAAAAAAAAAA11IIIIIIIIIIIIIIIIIIIII
AAAAAAAAAAAAAAAAAAAAAAAAAAAAAAAAAAAAAAAAAA11IIIIIIIIIIIIIIIIIIII
AAAAAAAAAAAAAAAAAAAAAAAAAAAAAAAAAAAAAAAAAAA11IIIIIIIIIIIIIIIIIII
AAAAAAAAAAAAAAAAAAAAAAAAAAAAAAAAAAAAAAAAAAAA11IIIIIIIIIIIIIIIIII
AAAAAAAAAAAAAAAAAAAAAAAAAAAAAAAAAAAAAAAAAAAAA11IIIIIIIIIIIIIIIII
AAAAAAAAAAAAAAAAAAAAAAAAAAAAAAAAAAAAAAAAAAAAAA11IIIIIIIIIIIIIIII
AAAAAAAAAAAAAAAAAAAAAAAAAAAAAAAAAAAAAAAAAAAAAAA11IIIIIIIIIIIIIII
AAAAAAAAAAAAAAAAAAAAAAAAAAAAAAAAAAAAAAAAAAAAAAAA11IIIIIIIIIIIIII
AAAAAAAAAAAAAAAAAAAAAAAAAAAAAAAAAAAAAAAAAAAAAAAAA11IIIIIIIIIIIII
AAAAAAAAAAAAAAAAAAAAAAAAAAAAAAAAAAAAAAAAAAAAAAAAAA11IIIIIIIIIIII
AAAAAAAAAAAAAAAAAAAAAAAAAAAAAAAAAAAAAAAAAAAAAAAAAAA11IIIIIIIIIII
AAAAAAAAAAAAAAAAAAAAAAAAAAAAAAAAAAAAAAAAAAAAAAAAAAAA11IIIIIIIIII
AAAAAAAAAAAAAAAAAAAAAAAAAAAAAAAAAAAAAAAAAAAAAAAAAAAAA11IIIIIIIII
AAAAAAAAAAAAAAAAAAAAAAAAAAAAAAAAAAAAAAAAAAAAAAAAAAAAAA11IIIIIIII
AAAAAAAAAAAAAAAAAAAAAAAAAAAAAAAAAAAAAAAAAAAAAAAAAAAAAAA11IIIIIII
AAAAAAAAAAAAAAAAAAAAAAAAAAAAAAAAAAAAAAAAAAAAAAAAAAAAAAAA11IIIIII
AAAAAAAAAAAAAAAAAAAAAAAAAAAAAAAAAAAAAAAAAAAAAAAAAAAAAAAAA11IIIII
AAAAAAAAAAAAAAAAAAAAAAAAAAAAAAAAAAAAAAAAAAAAAAAAAAAAAAAAAA11IIII
AAAAAAAAAAAAAAAAAAAAAAAAAAAAAAAAAAAAAAAAAAAAAAAAAAAAAAAAAAA11III
AAAAAAAAAAAAAAAAAAAAAAAAAAAAAAAAAAAAAAAAAAAAAAAAAAAAAAAAAAAA11II
AAAAAAAAAAAAAAAAAAAAAAAAAAAAAAAAAAAAAAAAAAAAAAAAAAAAAAAAAAAAA11I
AAAAAAAAAAAAAAAAAAAAAAAAAAAAAAAAAAAAAAAAAAAAAAAAAAAAAAAAAAAAAA11
AAAAAAAAAAAAAAAAAAAAAAAAAAAAAAAAAAAAAAAAAAAAAAAAAAAAAAAAAAAAAAA1
AAAAAAAAAAAAAAAAAAAAAAAAAAAAAAAAAAAAAAAAAAAAAAAAAAAAAAAAAAAAAAAA
[MLOP] Prefetch Degree Mean: 12.6338
[MLOP] Prefetch Degree SD: 1.06656
[MLOP] Max Score Left Mean (%): 79.245
[MLOP] Max Score Left SD (%): 1.9896
[MLOP] Max Score Right Mean (%): 98.1477
[MLOP] Max Score Right SD (%): 0.708258
LLC TOTAL     ACCESS:    5740009  HIT:    1827444  MISS:    3912565  HIT %:     31.837  MISS %:     68.163   MPKI: 19.5628
LLC LOAD      ACCESS:     178868  HIT:        299  MISS:     178569  HIT %:   0.167162  MISS %:    99.8328   MPKI: 0.892845
LLC RFO       ACCESS:    1910092  HIT:          0  MISS:    1910092  HIT %:          0  MISS %:        100   MPKI: 9.55046
LLC PREFETCH  ACCESS:    1733514  HIT:          0  MISS:    1733514  HIT %:          0  MISS %:        100   MPKI: 8.66757
LLC WRITEBACK ACCESS:    1909910  HIT:    1827114  MISS:      82796  HIT %:    95.6649  MISS %:    4.33507   MPKI: 0.41398

RAW hits: 2
Loads Generated: 36175206
Loads sent to L1D: 36175204
Stores Generated: 9539777
Stores sent to L1D: 9539780

CPU 3 cumulative IPC: 0.493503 instructions: 200036239 cycles: 405339634
ITLB TOTAL     ACCESS:   34095147  HIT:   34095138  MISS:          9  HIT %:        100  MISS %: 2.63967e-05   MPKI: 4.49918e-05
ITLB LOAD      ACCESS:          0  HIT:          0  MISS:          0  HIT %:       -nan  MISS %:       -nan   MPKI: 0
ITLB RFO       ACCESS:          0  HIT:          0  MISS:          0  HIT %:       -nan  MISS %:       -nan   MPKI: 0
ITLB PREFETCH  ACCESS:          0  HIT:          0  MISS:          0  HIT %:       -nan  MISS %:       -nan   MPKI: 0
ITLB WRITEBACK ACCESS:          0  HIT:          0  MISS:          0  HIT %:       -nan  MISS %:       -nan   MPKI: 0
DTLB TOTAL     ACCESS:   22021026  HIT:   21961289  MISS:      59737  HIT %:    99.7287  MISS %:   0.271273   MPKI: 0.298631
DTLB LOAD      ACCESS:          0  HIT:          0  MISS:          0  HIT %:       -nan  MISS %:       -nan   MPKI: 0
DTLB RFO       ACCESS:          0  HIT:          0  MISS:          0  HIT %:       -nan  MISS %:       -nan   MPKI: 0
DTLB PREFETCH  ACCESS:          0  HIT:          0  MISS:          0  HIT %:       -nan  MISS %:       -nan   MPKI: 0
DTLB WRITEBACK ACCESS:          0  HIT:          0  MISS:          0  HIT %:       -nan  MISS %:       -nan   MPKI: 0
STLB TOTAL     ACCESS:     822750  HIT:     763003  MISS:      59747  HIT %:    92.7381  MISS %:    7.26187   MPKI: 0.298681
STLB LOAD      ACCESS:          0  HIT:          0  MISS:          0  HIT %:       -nan  MISS %:       -nan   MPKI: 0
STLB RFO       ACCESS:          0  HIT:          0  MISS:          0  HIT %:       -nan  MISS %:       -nan   MPKI: 0
STLB PREFETCH  ACCESS:          0  HIT:          0  MISS:          0  HIT %:       -nan  MISS %:       -nan   MPKI: 0
STLB WRITEBACK ACCESS:          0  HIT:          0  MISS:          0  HIT %:       -nan  MISS %:       -nan   MPKI: 0
L1D TOTAL     ACCESS:   18015510  HIT:   14191355  MISS:    3824155  HIT %:     78.773  MISS %:     21.227   MPKI: 19.1173
L1D LOAD      ACCESS:   14180281  HIT:   13399033  MISS:     781248  HIT %:    94.4906  MISS %:     5.5094   MPKI: 3.90553
L1D RFO       ACCESS:    2702520  HIT:     792320  MISS:    1910200  HIT %:    29.3178  MISS %:    70.6822   MPKI: 9.54927
L1D PREFETCH  ACCESS:    1132709  HIT:          2  MISS:    1132707  HIT %: 0.000176568  MISS %:    99.9998   MPKI: 5.66251
L1D WRITEBACK ACCESS:          0  HIT:          0  MISS:          0  HIT %:       -nan  MISS %:       -nan   MPKI: 0
L1I TOTAL     ACCESS:   34109998  HIT:   34109925  MISS:         73  HIT %:    99.9998  MISS %: 0.000214013   MPKI: 0.000364934
L1I LOAD      ACCESS:   34109998  HIT:   34109925  MISS:         73  HIT %:    99.9998  MISS %: 0.000214013   MPKI: 0.000364934
L1I RFO       ACCESS:          0  HIT:          0  MISS:          0  HIT %:       -nan  MISS %:       -nan   MPKI: 0
L1I PREFETCH  ACCESS:          0  HIT:          0  MISS:          0  HIT %:       -nan  MISS %:       -nan   MPKI: 0
L1I WRITEBACK ACCESS:          0  HIT:          0  MISS:          0  HIT %:       -nan  MISS %:       -nan   MPKI: 0
L2C TOTAL     ACCESS:    5794216  HIT:    1655308  MISS:    4138908  HIT %:    28.5683  MISS %:    71.4317   MPKI: 20.6908
L2C LOAD      ACCESS:     181758  HIT:       1456  MISS:     180302  HIT %:   0.801065  MISS %:    99.1989   MPKI: 0.901347
L2C RFO       ACCESS:    1910200  HIT:          0  MISS:    1910200  HIT %:          0  MISS %:        100   MPKI: 9.54927
L2C PREFETCH  ACCESS:    1732270  HIT:          0  MISS:    1732270  HIT %:          0  MISS %:        100   MPKI: 8.65978
L2C WRITEBACK ACCESS:    1910234  HIT:    1601733  MISS:     308501  HIT %:    83.8501  MISS %:    16.1499   MPKI: 1.54223
PSCL5 TOTAL     ACCESS:      59747  HIT:      59747  MISS:          0  HIT %:        100  MISS %:          0   MPKI: 0
PSCL5 LOAD      ACCESS:          0  HIT:          0  MISS:          0  HIT %:       -nan  MISS %:       -nan   MPKI: 0
PSCL5 RFO       ACCESS:          0  HIT:          0  MISS:          0  HIT %:       -nan  MISS %:       -nan   MPKI: 0
PSCL5 PREFETCH  ACCESS:          0  HIT:          0  MISS:          0  HIT %:       -nan  MISS %:       -nan   MPKI: 0
PSCL5 WRITEBACK ACCESS:          0  HIT:          0  MISS:          0  HIT %:       -nan  MISS %:       -nan   MPKI: 0
PSCL4 TOTAL     ACCESS:      59747  HIT:      59747  MISS:          0  HIT %:        100  MISS %:          0   MPKI: 0
PSCL4 LOAD      ACCESS:          0  HIT:          0  MISS:          0  HIT %:       -nan  MISS %:       -nan   MPKI: 0
PSCL4 RFO       ACCESS:          0  HIT:          0  MISS:          0  HIT %:       -nan  MISS %:       -nan   MPKI: 0
PSCL4 PREFETCH  ACCESS:          0  HIT:          0  MISS:          0  HIT %:       -nan  MISS %:       -nan   MPKI: 0
PSCL4 WRITEBACK ACCESS:          0  HIT:          0  MISS:          0  HIT %:       -nan  MISS %:       -nan   MPKI: 0
PSCL3 TOTAL     ACCESS:      59747  HIT:      59747  MISS:          0  HIT %:        100  MISS %:          0   MPKI: 0
PSCL3 LOAD      ACCESS:          0  HIT:          0  MISS:          0  HIT %:       -nan  MISS %:       -nan   MPKI: 0
PSCL3 RFO       ACCESS:          0  HIT:          0  MISS:          0  HIT %:       -nan  MISS %:       -nan   MPKI: 0
PSCL3 PREFETCH  ACCESS:          0  HIT:          0  MISS:          0  HIT %:       -nan  MISS %:       -nan   MPKI: 0
PSCL3 WRITEBACK ACCESS:          0  HIT:          0  MISS:          0  HIT %:       -nan  MISS %:       -nan   MPKI: 0
PSCL2 TOTAL     ACCESS:      59747  HIT:      59619  MISS:        128  HIT %:    99.7858  MISS %:   0.214237   MPKI: 0.000639884
PSCL2 LOAD      ACCESS:          0  HIT:          0  MISS:          0  HIT %:       -nan  MISS %:       -nan   MPKI: 0
PSCL2 RFO       ACCESS:          0  HIT:          0  MISS:          0  HIT %:       -nan  MISS %:       -nan   MPKI: 0
PSCL2 PREFETCH  ACCESS:          0  HIT:          0  MISS:          0  HIT %:       -nan  MISS %:       -nan   MPKI: 0
PSCL2 WRITEBACK ACCESS:          0  HIT:          0  MISS:          0  HIT %:       -nan  MISS %:       -nan   MPKI: 0
=== CPU 3 L1D Prefetcher Statistics ===
[MLOP] History of tracked zone:
IIIIIIIIIIIIIIIIIIIIIIIIIIIIIIIIIIIIIIIIIIIIIIIIIIIIIIIIIIIIIIII
A11IIIIIIIIIIIIIIIIIIIIIIIIIIIIIIIIIIIIIIIIIIIIIIIIIIIIIIIIIIIII
AA11IIIIIIIIIIIIIIIIIIIIIIIIIIIIIIIIIIIIIIIIIIIIIIIIIIIIIIIIIIII
AAA11IIIIIIIIIIIIIIIIIIIIIIIIIIIIIIIIIIIIIIIIIIIIIIIIIIIIIIIIIII
AAAA11IIIIIIIIIIIIIIIIIIIIIIIIIIIIIIIIIIIIIIIIIIIIIIIIIIIIIIIIII
AAAAA11IIIIIIIIIIIIIIIIIIIIIIIIIIIIIIIIIIIIIIIIIIIIIIIIIIIIIIIII
AAAAAA11IIIIIIIIIIIIIIIIIIIIIIIIIIIIIIIIIIIIIIIIIIIIIIIIIIIIIIII
AAAAAAA11IIIIIIIIIIIIIIIIIIIIIIIIIIIIIIIIIIIIIIIIIIIIIIIIIIIIIII
AAAAAAAA11IIIIIIIIIIIIIIIIIIIIIIIIIIIIIIIIIIIIIIIIIIIIIIIIIIIIII
AAAAAAAAA11IIIIIIIIIIIIIIIIIIIIIIIIIIIIIIIIIIIIIIIIIIIIIIIIIIIII
AAAAAAAAAA11IIIIIIIIIIIIIIIIIIIIIIIIIIIIIIIIIIIIIIIIIIIIIIIIIIII
AAAAAAAAAAA11IIIIIIIIIIIIIIIIIIIIIIIIIIIIIIIIIIIIIIIIIIIIIIIIIII
AAAAAAAAAAAA11IIIIIIIIIIIIIIIIIIIIIIIIIIIIIIIIIIIIIIIIIIIIIIIIII
AAAAAAAAAAAAA11IIIIIIIIIIIIIIIIIIIIIIIIIIIIIIIIIIIIIIIIIIIIIIIII
AAAAAAAAAAAAAA11IIIIIIIIIIIIIIIIIIIIIIIIIIIIIIIIIIIIIIIIIIIIIIII
AAAAAAAAAAAAAAA11IIIIIIIIIIIIIIIIIIIIIIIIIIIIIIIIIIIIIIIIIIIIIII
AAAAAAAAAAAAAAAA11IIIIIIIIIIIIIIIIIIIIIIIIIIIIIIIIIIIIIIIIIIIIII
AAAAAAAAAAAAAAAAA11IIIIIIIIIIIIIIIIIIIIIIIIIIIIIIIIIIIIIIIIIIIII
AAAAAAAAAAAAAAAAAA11IIIIIIIIIIIIIIIIIIIIIIIIIIIIIIIIIIIIIIIIIIII
AAAAAAAAAAAAAAAAAAA11IIIIIIIIIIIIIIIIIIIIIIIIIIIIIIIIIIIIIIIIIII
AAAAAAAAAAAAAAAAAAAA11IIIIIIIIIIIIIIIIIIIIIIIIIIIIIIIIIIIIIIIIII
AAAAAAAAAAAAAAAAAAAAA11IIIIIIIIIIIIIIIIIIIIIIIIIIIIIIIIIIIIIIIII
AAAAAAAAAAAAAAAAAAAAAA11IIIIIIIIIIIIIIIIIIIIIIIIIIIIIIIIIIIIIIII
AAAAAAAAAAAAAAAAAAAAAAA11IIIIIIIIIIIIIIIIIIIIIIIIIIIIIIIIIIIIIII
AAAAAAAAAAAAAAAAAAAAAAAA11IIIIIIIIIIIIIIIIIIIIIIIIIIIIIIIIIIIIII
AAAAAAAAAAAAAAAAAAAAAAAAA11IIIIIIIIIIIIIIIIIIIIIIIIIIIIIIIIIIIII
AAAAAAAAAAAAAAAAAAAAAAAAAA11IIIIIIIIIIIIIIIIIIIIIIIIIIIIIIIIIIII
AAAAAAAAAAAAAAAAAAAAAAAAAAA11IIIIIIIIIIIIIIIIIIIIIIIIIIIIIIIIIII
AAAAAAAAAAAAAAAAAAAAAAAAAAAA11IIIIIIIIIIIIIIIIIIIIIIIIIIIIIIIIII
AAAAAAAAAAAAAAAAAAAAAAAAAAAAA11IIIIIIIIIIIIIIIIIIIIIIIIIIIIIIIII
AAAAAAAAAAAAAAAAAAAAAAAAAAAAAA11IIIIIIIIIIIIIIIIIIIIIIIIIIIIIIII
AAAAAAAAAAAAAAAAAAAAAAAAAAAAAAA11IIIIIIIIIIIIIIIIIIIIIIIIIIIIIII
AAAAAAAAAAAAAAAAAAAAAAAAAAAAAAAA11IIIIIIIIIIIIIIIIIIIIIIIIIIIIII
AAAAAAAAAAAAAAAAAAAAAAAAAAAAAAAAA11IIIIIIIIIIIIIIIIIIIIIIIIIIIII
AAAAAAAAAAAAAAAAAAAAAAAAAAAAAAAAAA11IIIIIIIIIIIIIIIIIIIIIIIIIIII
AAAAAAAAAAAAAAAAAAAAAAAAAAAAAAAAAAA11IIIIIIIIIIIIIIIIIIIIIIIIIII
AAAAAAAAAAAAAAAAAAAAAAAAAAAAAAAAAAAA11IIIIIIIIIIIIIIIIIIIIIIIIII
AAAAAAAAAAAAAAAAAAAAAAAAAAAAAAAAAAAAA11IIIIIIIIIIIIIIIIIIIIIIIII
AAAAAAAAAAAAAAAAAAAAAAAAAAAAAAAAAAAAAA11IIIIIIIIIIIIIIIIIIIIIIII
AAAAAAAAAAAAAAAAAAAAAAAAAAAAAAAAAAAAAAA11IIIIIIIIIIIIIIIIIIIIIII
AAAAAAAAAAAAAAAAAAAAAAAAAAAAAAAAAAAAAAAA11IIIIIIIIIIIIIIIIIIIIII
AAAAAAAAAAAAAAAAAAAAAAAAAAAAAAAAAAAAAAAAA11IIIIIIIIIIIIIIIIIIIII
AAAAAAAAAAAAAAAAAAAAAAAAAAAAAAAAAAAAAAAAAA11IIIIIIIIIIIIIIIIIIII
AAAAAAAAAAAAAAAAAAAAAAAAAAAAAAAAAAAAAAAAAAA11IIIIIIIIIIIIIIIIIII
AAAAAAAAAAAAAAAAAAAAAAAAAAAAAAAAAAAAAAAAAAAA11IIIIIIIIIIIIIIIIII
AAAAAAAAAAAAAAAAAAAAAAAAAAAAAAAAAAAAAAAAAAAAA11IIIIIIIIIIIIIIIII
AAAAAAAAAAAAAAAAAAAAAAAAAAAAAAAAAAAAAAAAAAAAAA11IIIIIIIIIIIIIIII
AAAAAAAAAAAAAAAAAAAAAAAAAAAAAAAAAAAAAAAAAAAAAAA11IIIIIIIIIIIIIII
AAAAAAAAAAAAAAAAAAAAAAAAAAAAAAAAAAAAAAAAAAAAAAAA11IIIIIIIIIIIIII
AAAAAAAAAAAAAAAAAAAAAAAAAAAAAAAAAAAAAAAAAAAAAAAAA11IIIIIIIIIIIII
AAAAAAAAAAAAAAAAAAAAAAAAAAAAAAAAAAAAAAAAAAAAAAAAAA11IIIIIIIIIIII
AAAAAAAAAAAAAAAAAAAAAAAAAAAAAAAAAAAAAAAAAAAAAAAAAAA11IIIIIIIIIII
AAAAAAAAAAAAAAAAAAAAAAAAAAAAAAAAAAAAAAAAAAAAAAAAAAAA11IIIIIIIIII
AAAAAAAAAAAAAAAAAAAAAAAAAAAAAAAAAAAAAAAAAAAAAAAAAAAAA11IIIIIIIII
AAAAAAAAAAAAAAAAAAAAAAAAAAAAAAAAAAAAAAAAAAAAAAAAAAAAAA11IIIIIIII
AAAAAAAAAAAAAAAAAAAAAAAAAAAAAAAAAAAAAAAAAAAAAAAAAAAAAAA11IIIIIII
AAAAAAAAAAAAAAAAAAAAAAAAAAAAAAAAAAAAAAAAAAAAAAAAAAAAAAAA11IIIIII
AAAAAAAAAAAAAAAAAAAAAAAAAAAAAAAAAAAAAAAAAAAAAAAAAAAAAAAAA11IIIII
AAAAAAAAAAAAAAAAAAAAAAAAAAAAAAAAAAAAAAAAAAAAAAAAAAAAAAAAAA11IIII
AAAAAAAAAAAAAAAAAAAAAAAAAAAAAAAAAAAAAAAAAAAAAAAAAAAAAAAAAAA11III
AAAAAAAAAAAAAAAAAAAAAAAAAAAAAAAAAAAAAAAAAAAAAAAAAAAAAAAAAAAA11II
AAAAAAAAAAAAAAAAAAAAAAAAAAAAAAAAAAAAAAAAAAAAAAAAAAAAAAAAAAAAA11I
AAAAAAAAAAAAAAAAAAAAAAAAAAAAAAAAAAAAAAAAAAAAAAAAAAAAAAAAAAAAAA11
AAAAAAAAAAAAAAAAAAAAAAAAAAAAAAAAAAAAAAAAAAAAAAAAAAAAAAAAAAAAAAA1
AAAAAAAAAAAAAAAAAAAAAAAAAAAAAAAAAAAAAAAAAAAAAAAAAAAAAAAAAAAAAAAA
[MLOP] Prefetch Degree Mean: 12.6456
[MLOP] Prefetch Degree SD: 1.07934
[MLOP] Max Score Left Mean (%): 79.2713
[MLOP] Max Score Left SD (%): 2.02584
[MLOP] Max Score Right Mean (%): 98.123
[MLOP] Max Score Right SD (%): 0.731366
LLC TOTAL     ACCESS:    5740338  HIT:    1833314  MISS:    3907024  HIT %:    31.9374  MISS %:    68.0626   MPKI: 19.5316
LLC LOAD      ACCESS:     180302  HIT:        341  MISS:     179961  HIT %:   0.189127  MISS %:    99.8109   MPKI: 0.899642
LLC RFO       ACCESS:    1910200  HIT:          0  MISS:    1910200  HIT %:          0  MISS %:        100   MPKI: 9.54927
LLC PREFETCH  ACCESS:    1732270  HIT:          0  MISS:    1732270  HIT %:          0  MISS %:        100   MPKI: 8.65978
LLC WRITEBACK ACCESS:    1909931  HIT:    1832954  MISS:      76977  HIT %:    95.9696  MISS %:    4.03036   MPKI: 0.384815

RAW hits: 1
Loads Generated: 36182116
Loads sent to L1D: 36182114
Stores Generated: 9540640
Stores sent to L1D: 9540641

Region of Interest Statistics

CPU 0 cumulative IPC: 0.494152 instructions: 200000000 cycles: 404734034
ITLB TOTAL     ACCESS:   34087680  HIT:   34087671  MISS:          9  HIT %:        100  MISS %: 2.64025e-05   MPKI: 4.5e-05
ITLB LOAD TRANSLATION ACCESS:   34087680  HIT:   34087671  MISS:          9  HIT %:        100  MISS %: 2.64025e-05   MPKI: 4.5e-05
ITLB PREFETCH  REQUESTED:          0  ISSUED:          0  USEFUL:          0  USELESS:          0
ITLB USEFUL LOAD PREFETCHES:          0 PREFETCH ISSUED TO LOWER LEVEL:          0  ACCURACY: -nan
ITLB TIMELY PREFETCHES:          0 LATE PREFETCHES: 0 DROPPED PREFETCHES: 0
ITLB PREFETCHES SAME FILL-ORIGIN LEVEL: 0 DIFFERENT FILL-ORIGIN LEVEL: 0
ITLB AVERAGE MISS LATENCY: 420.222 cycles
ITLB RQ	ACCESS:   34210783	FORWARD:          0	MERGED:      14917	TO_CACHE:   34195866

DTLB TOTAL     ACCESS:   22019509  HIT:   21959779  MISS:      59730  HIT %:    99.7287  MISS %:   0.271259   MPKI: 0.29865
DTLB LOAD TRANSLATION ACCESS:   22019509  HIT:   21959779  MISS:      59730  HIT %:    99.7287  MISS %:   0.271259   MPKI: 0.29865
DTLB PREFETCH  REQUESTED:          0  ISSUED:          0  USEFUL:          0  USELESS:          0
DTLB USEFUL LOAD PREFETCHES:          0 PREFETCH ISSUED TO LOWER LEVEL:          0  ACCURACY: -nan
DTLB TIMELY PREFETCHES:          0 LATE PREFETCHES: 0 DROPPED PREFETCHES: 0
DTLB PREFETCHES SAME FILL-ORIGIN LEVEL: 0 DIFFERENT FILL-ORIGIN LEVEL: 0
DTLB AVERAGE MISS LATENCY: 256.475 cycles
DTLB RQ	ACCESS:   24174591	FORWARD:          0	MERGED:    1903324	TO_CACHE:   22271267

STLB TOTAL     ACCESS:     823216  HIT:     763476  MISS:      59740  HIT %:    92.7431  MISS %:     7.2569   MPKI: 0.2987
STLB LOAD TRANSLATION ACCESS:      59739  HIT:          0  MISS:      59739  HIT %:          0  MISS %:        100   MPKI: 0.298695
STLB TRANSLATION FROM L1D PREFETCHER ACCESS:     763477  HIT:     763476  MISS:          1  HIT %:    99.9999  MISS %: 0.00013098   MPKI: 5e-06
STLB PREFETCH  REQUESTED:          0  ISSUED:          0  USEFUL:          1  USELESS:          1
STLB USEFUL LOAD PREFETCHES:          1 PREFETCH ISSUED TO LOWER LEVEL:          0  ACCURACY: inf
STLB TIMELY PREFETCHES:          1 LATE PREFETCHES: 0 DROPPED PREFETCHES: 0
STLB PREFETCHES SAME FILL-ORIGIN LEVEL: 0 DIFFERENT FILL-ORIGIN LEVEL: 0
STLB AVERAGE MISS LATENCY: 247.486 cycles
STLB RQ	ACCESS:    1861849	FORWARD:          0	MERGED:    1037026	TO_CACHE:     824823

STLB Hit, L1D data hit: 0
STLB Hit, L2C data hit: 0
STLB Hit, LLC data hit: 0
STLB Hit, LLC data miss: 0
STLB STLB hints to L2: 0
L1D TOTAL     ACCESS:   18021865  HIT:   14197968  MISS:    3823897  HIT %:    78.7819  MISS %:    21.2181   MPKI: 19.1195
L1D LOAD      ACCESS:   14179297  HIT:   13398410  MISS:     780887  HIT %:    94.4928  MISS %:    5.50723   MPKI: 3.90443
L1D RFO       ACCESS:    2709647  HIT:     799555  MISS:    1910092  HIT %:    29.5077  MISS %:    70.4923   MPKI: 9.55046
L1D PREFETCH  ACCESS:    1132921  HIT:          3  MISS:    1132918  HIT %: 0.000264802  MISS %:    99.9997   MPKI: 5.66459
L1D PREFETCH  REQUESTED:    3604092  ISSUED:    3604092  USEFUL:    1132938  USELESS:       1877
L1D USEFUL LOAD PREFETCHES:    1132938 PREFETCH ISSUED TO LOWER LEVEL:    1734480  ACCURACY: 65.3186
L1D TIMELY PREFETCHES:    1132938 LATE PREFETCHES: 599655 DROPPED PREFETCHES: 0
L1D PREFETCHES SAME FILL-ORIGIN LEVEL: 1734480 DIFFERENT FILL-ORIGIN LEVEL: 0
L1D AVERAGE MISS LATENCY: 696.354 cycles
L1D RQ	ACCESS:   36298503	FORWARD:          0	MERGED:   21679079	TO_CACHE:   14619424
L1D WQ	ACCESS:    9555167	FORWARD:          0	MERGED:          0	TO_CACHE:    9555167
L1D PQ	ACCESS:    1802046	FORWARD:          0	MERGED:          0	TO_CACHE:    1802046

L1D UNIQUE REGIONS ACCESSED: 0
L1D REGIONS CONFLICTS: 0
L1D Cross Page Prefetch Requests: 0
L1D Same Page Prefetch Requests: 1948366
L1D ROI Sum of L1D PQ occupancy: 37133372
L1D PREFETCHES PUSHED FROM L2C: 0
L1I TOTAL     ACCESS:   34102529  HIT:   34102456  MISS:         73  HIT %:    99.9998  MISS %: 0.00021406   MPKI: 0.000365
L1I LOAD      ACCESS:   34102529  HIT:   34102456  MISS:         73  HIT %:    99.9998  MISS %: 0.00021406   MPKI: 0.000365
L1I PREFETCH  REQUESTED:          0  ISSUED:          0  USEFUL:          0  USELESS:          0
L1I USEFUL LOAD PREFETCHES:          0 PREFETCH ISSUED TO LOWER LEVEL:          0  ACCURACY: -nan
L1I TIMELY PREFETCHES:          0 LATE PREFETCHES: 0 DROPPED PREFETCHES: 0
L1I PREFETCHES SAME FILL-ORIGIN LEVEL: 0 DIFFERENT FILL-ORIGIN LEVEL: 0
L1I AVERAGE MISS LATENCY: 318.397 cycles
L1I RQ	ACCESS:   88190809	FORWARD:          0	MERGED:   53980026	TO_CACHE:   34210783

BTB TOTAL     ACCESS:   66534964  HIT:   66534889  MISS:         75  HIT %:    99.9999  MISS %: 0.000112723   MPKI: 0.000375
BTB BRANCH_DIRECT_JUMP	ACCESS:         14  HIT:          0  MISS:         14
BTB BRANCH_INDIRECT	ACCESS:          0  HIT:          0  MISS:          0
BTB BRANCH_CONDITIONAL	ACCESS:   66534935  HIT:   66534889  MISS:         46
BTB BRANCH_DIRECT_CALL	ACCESS:          6  HIT:          0  MISS:          6
BTB BRANCH_INDIRECT_CALL	ACCESS:          1  HIT:          0  MISS:          1
BTB BRANCH_RETURN	ACCESS:          8  HIT:          0  MISS:          8
BTB BRANCH_OTHER ACCESS:          0  HIT:          0  MISS:          0

L2C TOTAL     ACCESS:    5793818  HIT:    1658461  MISS:    4135357  HIT %:    28.6247  MISS %:    71.3753   MPKI: 20.6768
L2C LOAD      ACCESS:     181307  HIT:       1442  MISS:     179865  HIT %:   0.795336  MISS %:    99.2047   MPKI: 0.899325
L2C DATA LOAD MPKI: 0.89896
L2C INSTRUCTION LOAD MPKI: 0.000365
L2C RFO       ACCESS:    1910092  HIT:          0  MISS:    1910092  HIT %:          0  MISS %:        100   MPKI: 9.55046
L2C PREFETCH  ACCESS:    1732571  HIT:          0  MISS:    1732571  HIT %:          0  MISS %:        100   MPKI: 8.66286
L2C DATA PREFETCH MPKI: 8.66286
L2C INSTRUCTION PREFETCH MPKI: 0
L2C WRITEBACK ACCESS:    1910104  HIT:    1604897  MISS:     305207  HIT %:    84.0214  MISS %:    15.9786   MPKI: 1.52604
L2C LOAD TRANSLATION ACCESS:      59743  HIT:      52121  MISS:       7622  HIT %:     87.242  MISS %:     12.758   MPKI: 0.03811
L2C TRANSLATION FROM L1D PREFETCHER ACCESS:          1  HIT:          1  MISS:          0  HIT %:        100  MISS %:          0   MPKI: 0
L2C PREFETCH  REQUESTED:          0  ISSUED:          0  USEFUL:       1448  USELESS:    1733417
L2C USEFUL LOAD PREFETCHES:       1448 PREFETCH ISSUED TO LOWER LEVEL:    1734480  ACCURACY: 0.0834832
L2C TIMELY PREFETCHES:       1448 LATE PREFETCHES: 0 DROPPED PREFETCHES: 0
L2C PREFETCHES SAME FILL-ORIGIN LEVEL: 0 DIFFERENT FILL-ORIGIN LEVEL: 0
L2C AVERAGE MISS LATENCY: 818.533 cycles
L2C RQ	ACCESS:    2153206	FORWARD:          0	MERGED:          0	TO_CACHE:    2153206
L2C WQ	ACCESS:    1912029	FORWARD:          0	MERGED:          0	TO_CACHE:    1912029
L2C PQ	ACCESS:    1734480	FORWARD:          0	MERGED:          0	TO_CACHE:    1734480

L2C Instructions Evicting Data 73
L2C Translations Evicting Data 7631
L2C Data Evicting Data 3819022
L2C Instructions Evicting Instructions 0
L2C Translations Evicting Instructions 0
L2C Data Evicting Instructions 72
L2C Instructions Evicting Translations 0
L2C Translations Evicting Translations 4
L2C Data Evicting Translations 7255
L2C Dense regions hint from L2: 0
PSCL5 TOTAL     ACCESS:      59740  HIT:      59740  MISS:          0  HIT %:        100  MISS %:          0   MPKI: 0
PSCL5 LOAD TRANSLATION ACCESS:      59739  HIT:      59739  MISS:          0  HIT %:        100  MISS %:          0   MPKI: 0
PSCL5 TRANSLATION FROM L1D PREFETCHER ACCESS:          1  HIT:          1  MISS:          0  HIT %:        100  MISS %:          0   MPKI: 0
PSCL5 PREFETCH  REQUESTED:          0  ISSUED:          0  USEFUL:          0  USELESS:          0
PSCL5 USEFUL LOAD PREFETCHES:          0 PREFETCH ISSUED TO LOWER LEVEL:          0  ACCURACY: -nan
PSCL5 TIMELY PREFETCHES:          0 LATE PREFETCHES: 0 DROPPED PREFETCHES: 0
PSCL5 PREFETCHES SAME FILL-ORIGIN LEVEL: 0 DIFFERENT FILL-ORIGIN LEVEL: 0

PSCL4 TOTAL     ACCESS:      59740  HIT:      59740  MISS:          0  HIT %:        100  MISS %:          0   MPKI: 0
PSCL4 LOAD TRANSLATION ACCESS:      59739  HIT:      59739  MISS:          0  HIT %:        100  MISS %:          0   MPKI: 0
PSCL4 TRANSLATION FROM L1D PREFETCHER ACCESS:          1  HIT:          1  MISS:          0  HIT %:        100  MISS %:          0   MPKI: 0
PSCL4 PREFETCH  REQUESTED:          0  ISSUED:          0  USEFUL:          0  USELESS:          0
PSCL4 USEFUL LOAD PREFETCHES:          0 PREFETCH ISSUED TO LOWER LEVEL:          0  ACCURACY: -nan
PSCL4 TIMELY PREFETCHES:          0 LATE PREFETCHES: 0 DROPPED PREFETCHES: 0
PSCL4 PREFETCHES SAME FILL-ORIGIN LEVEL: 0 DIFFERENT FILL-ORIGIN LEVEL: 0

PSCL3 TOTAL     ACCESS:      59740  HIT:      59740  MISS:          0  HIT %:        100  MISS %:          0   MPKI: 0
PSCL3 LOAD TRANSLATION ACCESS:      59739  HIT:      59739  MISS:          0  HIT %:        100  MISS %:          0   MPKI: 0
PSCL3 TRANSLATION FROM L1D PREFETCHER ACCESS:          1  HIT:          1  MISS:          0  HIT %:        100  MISS %:          0   MPKI: 0
PSCL3 PREFETCH  REQUESTED:          0  ISSUED:          0  USEFUL:          0  USELESS:          0
PSCL3 USEFUL LOAD PREFETCHES:          0 PREFETCH ISSUED TO LOWER LEVEL:          0  ACCURACY: -nan
PSCL3 TIMELY PREFETCHES:          0 LATE PREFETCHES: 0 DROPPED PREFETCHES: 0
PSCL3 PREFETCHES SAME FILL-ORIGIN LEVEL: 0 DIFFERENT FILL-ORIGIN LEVEL: 0

PSCL2 TOTAL     ACCESS:      59740  HIT:      59615  MISS:        125  HIT %:    99.7908  MISS %:    0.20924   MPKI: 0.000625
PSCL2 LOAD TRANSLATION ACCESS:      59739  HIT:      59614  MISS:        125  HIT %:    99.7908  MISS %:   0.209244   MPKI: 0.000625
PSCL2 TRANSLATION FROM L1D PREFETCHER ACCESS:          1  HIT:          1  MISS:          0  HIT %:        100  MISS %:          0   MPKI: 0
PSCL2 PREFETCH  REQUESTED:          0  ISSUED:          0  USEFUL:          0  USELESS:          0
PSCL2 USEFUL LOAD PREFETCHES:          0 PREFETCH ISSUED TO LOWER LEVEL:          0  ACCURACY: -nan
PSCL2 TIMELY PREFETCHES:          0 LATE PREFETCHES: 0 DROPPED PREFETCHES: 0
PSCL2 PREFETCHES SAME FILL-ORIGIN LEVEL: 0 DIFFERENT FILL-ORIGIN LEVEL: 0

LLC TOTAL     ACCESS:    5740148  HIT:    1833900  MISS:    3906248  HIT %:    31.9487  MISS %:    68.0513   MPKI: 19.5312
LLC LOAD      ACCESS:     179865  HIT:        356  MISS:     179509  HIT %:   0.197926  MISS %:    99.8021   MPKI: 0.897545
LLC RFO       ACCESS:    1910092  HIT:          0  MISS:    1910092  HIT %:          0  MISS %:        100   MPKI: 9.55046
LLC PREFETCH  ACCESS:    1732571  HIT:          0  MISS:    1732571  HIT %:          0  MISS %:        100   MPKI: 8.66286
LLC WRITEBACK ACCESS:    1909998  HIT:    1833525  MISS:      76473  HIT %:    95.9962  MISS %:    4.00383   MPKI: 0.382365
LLC LOAD TRANSLATION ACCESS:       7622  HIT:         19  MISS:       7603  HIT %:   0.249278  MISS %:    99.7507   MPKI: 0.038015
LLC PREFETCH  REQUESTED:          0  ISSUED:          0  USEFUL:       1281  USELESS:    6936511
LLC USEFUL LOAD PREFETCHES:       1281 PREFETCH ISSUED TO LOWER LEVEL:    7105360  ACCURACY: 0.0180286
LLC TIMELY PREFETCHES:       1281 LATE PREFETCHES: 0 DROPPED PREFETCHES: 0
LLC PREFETCHES SAME FILL-ORIGIN LEVEL: 0 DIFFERENT FILL-ORIGIN LEVEL: 0
LLC AVERAGE MISS LATENCY: 3345.68 cycles
LLC RQ	ACCESS:    8392403	FORWARD:          0	MERGED:          0	TO_CACHE:    8392403
LLC WQ	ACCESS:    7641798	FORWARD:          0	MERGED:          0	TO_CACHE:    7641798
LLC PQ	ACCESS:    6932894	FORWARD:          0	MERGED:          0	TO_CACHE:    6932894

LLC Dense regions hint to LLC: 0

RAW hits: 1
Loads Generated: 36175201
Loads sent to L1D: 36175199
Stores Generated: 9539777
Stores sent to L1D: 9539780
Major fault: 0 Minor fault: 64538
Allocated PAGES: 258152

CPU 1 cumulative IPC: 0.493539 instructions: 200000000 cycles: 405236880
ITLB TOTAL     ACCESS:   34087992  HIT:   34087983  MISS:          9  HIT %:        100  MISS %: 2.64023e-05   MPKI: 4.5e-05
ITLB LOAD TRANSLATION ACCESS:   34087992  HIT:   34087983  MISS:          9  HIT %:        100  MISS %: 2.64023e-05   MPKI: 4.5e-05
ITLB PREFETCH  REQUESTED:          0  ISSUED:          0  USEFUL:          0  USELESS:          0
ITLB USEFUL LOAD PREFETCHES:          0 PREFETCH ISSUED TO LOWER LEVEL:          0  ACCURACY: -nan
ITLB TIMELY PREFETCHES:          0 LATE PREFETCHES: 0 DROPPED PREFETCHES: 0
ITLB PREFETCHES SAME FILL-ORIGIN LEVEL: 0 DIFFERENT FILL-ORIGIN LEVEL: 0
ITLB AVERAGE MISS LATENCY: 444.222 cycles
ITLB RQ	ACCESS:   34119445	FORWARD:          0	MERGED:      14866	TO_CACHE:   34104579

DTLB TOTAL     ACCESS:   22022455  HIT:   21962725  MISS:      59730  HIT %:    99.7288  MISS %:   0.271223   MPKI: 0.29865
DTLB LOAD TRANSLATION ACCESS:   22022455  HIT:   21962725  MISS:      59730  HIT %:    99.7288  MISS %:   0.271223   MPKI: 0.29865
DTLB PREFETCH  REQUESTED:          0  ISSUED:          0  USEFUL:          0  USELESS:          0
DTLB USEFUL LOAD PREFETCHES:          0 PREFETCH ISSUED TO LOWER LEVEL:          0  ACCURACY: -nan
DTLB TIMELY PREFETCHES:          0 LATE PREFETCHES: 0 DROPPED PREFETCHES: 0
DTLB PREFETCHES SAME FILL-ORIGIN LEVEL: 0 DIFFERENT FILL-ORIGIN LEVEL: 0
DTLB AVERAGE MISS LATENCY: 256.733 cycles
DTLB RQ	ACCESS:   24124619	FORWARD:          0	MERGED:    1903844	TO_CACHE:   22220775

STLB TOTAL     ACCESS:     823281  HIT:     763541  MISS:      59740  HIT %:    92.7437  MISS %:    7.25633   MPKI: 0.2987
STLB LOAD TRANSLATION ACCESS:      59739  HIT:          0  MISS:      59739  HIT %:          0  MISS %:        100   MPKI: 0.298695
STLB TRANSLATION FROM L1D PREFETCHER ACCESS:     763542  HIT:     763541  MISS:          1  HIT %:    99.9999  MISS %: 0.000130969   MPKI: 5e-06
STLB PREFETCH  REQUESTED:          0  ISSUED:          0  USEFUL:          1  USELESS:          1
STLB USEFUL LOAD PREFETCHES:          1 PREFETCH ISSUED TO LOWER LEVEL:          0  ACCURACY: inf
STLB TIMELY PREFETCHES:          1 LATE PREFETCHES: 0 DROPPED PREFETCHES: 0
STLB PREFETCHES SAME FILL-ORIGIN LEVEL: 0 DIFFERENT FILL-ORIGIN LEVEL: 0
STLB AVERAGE MISS LATENCY: 247.755 cycles
STLB RQ	ACCESS:    1859816	FORWARD:          0	MERGED:    1036276	TO_CACHE:     823540

STLB Hit, L1D data hit: 0
STLB Hit, L2C data hit: 0
STLB Hit, LLC data hit: 0
STLB Hit, LLC data miss: 0
STLB STLB hints to L2: 0
L1D TOTAL     ACCESS:   18023589  HIT:   14199689  MISS:    3823900  HIT %:    78.7839  MISS %:    21.2161   MPKI: 19.1195
L1D LOAD      ACCESS:   14182237  HIT:   13400680  MISS:     781557  HIT %:    94.4892  MISS %:    5.51082   MPKI: 3.90779
L1D RFO       ACCESS:    2709098  HIT:     799006  MISS:    1910092  HIT %:    29.4934  MISS %:    70.5066   MPKI: 9.55046
L1D PREFETCH  ACCESS:    1132254  HIT:          3  MISS:    1132251  HIT %: 0.000264958  MISS %:    99.9997   MPKI: 5.66125
L1D PREFETCH  REQUESTED:    3600128  ISSUED:    3600128  USEFUL:    1130691  USELESS:       1834
L1D USEFUL LOAD PREFETCHES:    1130691 PREFETCH ISSUED TO LOWER LEVEL:    1732629  ACCURACY: 65.2587
L1D TIMELY PREFETCHES:    1130691 LATE PREFETCHES: 600055 DROPPED PREFETCHES: 0
L1D PREFETCHES SAME FILL-ORIGIN LEVEL: 1732629 DIFFERENT FILL-ORIGIN LEVEL: 0
L1D AVERAGE MISS LATENCY: 695.969 cycles
L1D RQ	ACCESS:   36194091	FORWARD:          0	MERGED:   21611608	TO_CACHE:   14582483
L1D WQ	ACCESS:    9542136	FORWARD:          0	MERGED:          0	TO_CACHE:    9542136
L1D PQ	ACCESS:    1800064	FORWARD:          0	MERGED:          0	TO_CACHE:    1800064

L1D UNIQUE REGIONS ACCESSED: 0
L1D REGIONS CONFLICTS: 0
L1D Cross Page Prefetch Requests: 0
L1D Same Page Prefetch Requests: 1946384
L1D ROI Sum of L1D PQ occupancy: 37060764
L1D PREFETCHES PUSHED FROM L2C: 0
L1I TOTAL     ACCESS:   34102839  HIT:   34102766  MISS:         73  HIT %:    99.9998  MISS %: 0.000214058   MPKI: 0.000365
L1I LOAD      ACCESS:   34102839  HIT:   34102766  MISS:         73  HIT %:    99.9998  MISS %: 0.000214058   MPKI: 0.000365
L1I PREFETCH  REQUESTED:          0  ISSUED:          0  USEFUL:          0  USELESS:          0
L1I USEFUL LOAD PREFETCHES:          0 PREFETCH ISSUED TO LOWER LEVEL:          0  ACCURACY: -nan
L1I TIMELY PREFETCHES:          0 LATE PREFETCHES: 0 DROPPED PREFETCHES: 0
L1I PREFETCHES SAME FILL-ORIGIN LEVEL: 0 DIFFERENT FILL-ORIGIN LEVEL: 0
L1I AVERAGE MISS LATENCY: 403.712 cycles
L1I RQ	ACCESS:   87943468	FORWARD:          0	MERGED:   53824023	TO_CACHE:   34119445

BTB TOTAL     ACCESS:   66534965  HIT:   66534890  MISS:         75  HIT %:    99.9999  MISS %: 0.000112723   MPKI: 0.000375
BTB BRANCH_DIRECT_JUMP	ACCESS:         14  HIT:          0  MISS:         14
BTB BRANCH_INDIRECT	ACCESS:          0  HIT:          0  MISS:          0
BTB BRANCH_CONDITIONAL	ACCESS:   66534936  HIT:   66534890  MISS:         46
BTB BRANCH_DIRECT_CALL	ACCESS:          6  HIT:          0  MISS:          6
[...]
AAAAAAAAA11IIIIIIIIIIIIIIIIIIIIIIIIIIIIIIIIIIIIIIIIIIIIIIIIIIIII
AAAAAAAAAA11IIIIIIIIIIIIIIIIIIIIIIIIIIIIIIIIIIIIIIIIIIIIIIIIIIII
AAAAAAAAAAA11IIIIIIIIIIIIIIIIIIIIIIIIIIIIIIIIIIIIIIIIIIIIIIIIIII
AAAAAAAAAAAA11IIIIIIIIIIIIIIIIIIIIIIIIIIIIIIIIIIIIIIIIIIIIIIIIII
AAAAAAAAAAAAA11IIIIIIIIIIIIIIIIIIIIIIIIIIIIIIIIIIIIIIIIIIIIIIIII
AAAAAAAAAAAAAA11IIIIIIIIIIIIIIIIIIIIIIIIIIIIIIIIIIIIIIIIIIIIIIII
AAAAAAAAAAAAAAA11IIIIIIIIIIIIIIIIIIIIIIIIIIIIIIIIIIIIIIIIIIIIIII
AAAAAAAAAAAAAAAA11IIIIIIIIIIIIIIIIIIIIIIIIIIIIIIIIIIIIIIIIIIIIII
AAAAAAAAAAAAAAAAA11IIIIIIIIIIIIIIIIIIIIIIIIIIIIIIIIIIIIIIIIIIIII
AAAAAAAAAAAAAAAAAA11IIIIIIIIIIIIIIIIIIIIIIIIIIIIIIIIIIIIIIIIIIII
AAAAAAAAAAAAAAAAAAA11IIIIIIIIIIIIIIIIIIIIIIIIIIIIIIIIIIIIIIIIIII
AAAAAAAAAAAAAAAAAAAA11IIIIIIIIIIIIIIIIIIIIIIIIIIIIIIIIIIIIIIIIII
AAAAAAAAAAAAAAAAAAAAA11IIIIIIIIIIIIIIIIIIIIIIIIIIIIIIIIIIIIIIIII
AAAAAAAAAAAAAAAAAAAAAA11IIIIIIIIIIIIIIIIIIIIIIIIIIIIIIIIIIIIIIII
AAAAAAAAAAAAAAAAAAAAAAA11IIIIIIIIIIIIIIIIIIIIIIIIIIIIIIIIIIIIIII
AAAAAAAAAAAAAAAAAAAAAAAA11IIIIIIIIIIIIIIIIIIIIIIIIIIIIIIIIIIIIII
AAAAAAAAAAAAAAAAAAAAAAAAA11IIIIIIIIIIIIIIIIIIIIIIIIIIIIIIIIIIIII
AAAAAAAAAAAAAAAAAAAAAAAAAA11IIIIIIIIIIIIIIIIIIIIIIIIIIIIIIIIIIII
AAAAAAAAAAAAAAAAAAAAAAAAAAA11IIIIIIIIIIIIIIIIIIIIIIIIIIIIIIIIIII
AAAAAAAAAAAAAAAAAAAAAAAAAAAA11IIIIIIIIIIIIIIIIIIIIIIIIIIIIIIIIII
AAAAAAAAAAAAAAAAAAAAAAAAAAAAA11IIIIIIIIIIIIIIIIIIIIIIIIIIIIIIIII
AAAAAAAAAAAAAAAAAAAAAAAAAAAAAA11IIIIIIIIIIIIIIIIIIIIIIIIIIIIIIII
AAAAAAAAAAAAAAAAAAAAAAAAAAAAAAA11IIIIIIIIIIIIIIIIIIIIIIIIIIIIIII
AAAAAAAAAAAAAAAAAAAAAAAAAAAAAAAA11IIIIIIIIIIIIIIIIIIIIIIIIIIIIII
AAAAAAAAAAAAAAAAAAAAAAAAAAAAAAAAA11IIIIIIIIIIIIIIIIIIIIIIIIIIIII
AAAAAAAAAAAAAAAAAAAAAAAAAAAAAAAAAA11IIIIIIIIIIIIIIIIIIIIIIIIIIII
AAAAAAAAAAAAAAAAAAAAAAAAAAAAAAAAAAA11IIIIIIIIIIIIIIIIIIIIIIIIIII
AAAAAAAAAAAAAAAAAAAAAAAAAAAAAAAAAAAA11IIIIIIIIIIIIIIIIIIIIIIIIII
AAAAAAAAAAAAAAAAAAAAAAAAAAAAAAAAAAAAA11IIIIIIIIIIIIIIIIIIIIIIIII
AAAAAAAAAAAAAAAAAAAAAAAAAAAAAAAAAAAAAA11IIIIIIIIIIIIIIIIIIIIIIII
AAAAAAAAAAAAAAAAAAAAAAAAAAAAAAAAAAAAAAA11IIIIIIIIIIIIIIIIIIIIIII
AAAAAAAAAAAAAAAAAAAAAAAAAAAAAAAAAAAAAAAA11IIIIIIIIIIIIIIIIIIIIII
AAAAAAAAAAAAAAAAAAAAAAAAAAAAAAAAAAAAAAAAA11IIIIIIIIIIIIIIIIIIIII
AAAAAAAAAAAAAAAAAAAAAAAAAAAAAAAAAAAAAAAAAA11IIIIIIIIIIIIIIIIIIII
AAAAAAAAAAAAAAAAAAAAAAAAAAAAAAAAAAAAAAAAAAA11IIIIIIIIIIIIIIIIIII
AAAAAAAAAAAAAAAAAAAAAAAAAAAAAAAAAAAAAAAAAAAA11IIIIIIIIIIIIIIIIII
AAAAAAAAAAAAAAAAAAAAAAAAAAAAAAAAAAAAAAAAAAAAA11IIIIIIIIIIIIIIIII
AAAAAAAAAAAAAAAAAAAAAAAAAAAAAAAAAAAAAAAAAAAAAA11IIIIIIIIIIIIIIII
AAAAAAAAAAAAAAAAAAAAAAAAAAAAAAAAAAAAAAAAAAAAAAA11IIIIIIIIIIIIIII
AAAAAAAAAAAAAAAAAAAAAAAAAAAAAAAAAAAAAAAAAAAAAAAA11IIIIIIIIIIIIII
AAAAAAAAAAAAAAAAAAAAAAAAAAAAAAAAAAAAAAAAAAAAAAAAA11IIIIIIIIIIIII
AAAAAAAAAAAAAAAAAAAAAAAAAAAAAAAAAAAAAAAAAAAAAAAAAA11IIIIIIIIIIII
AAAAAAAAAAAAAAAAAAAAAAAAAAAAAAAAAAAAAAAAAAAAAAAAAAA11IIIIIIIIIII
AAAAAAAAAAAAAAAAAAAAAAAAAAAAAAAAAAAAAAAAAAAAAAAAAAAA11IIIIIIIIII
AAAAAAAAAAAAAAAAAAAAAAAAAAAAAAAAAAAAAAAAAAAAAAAAAAAAA11IIIIIIIII
AAAAAAAAAAAAAAAAAAAAAAAAAAAAAAAAAAAAAAAAAAAAAAAAAAAAAA11IIIIIIII
AAAAAAAAAAAAAAAAAAAAAAAAAAAAAAAAAAAAAAAAAAAAAAAAAAAAAAA11IIIIIII
AAAAAAAAAAAAAAAAAAAAAAAAAAAAAAAAAAAAAAAAAAAAAAAAAAAAAAAA11IIIIII
AAAAAAAAAAAAAAAAAAAAAAAAAAAAAAAAAAAAAAAAAAAAAAAAAAAAAAAAA11IIIII
AAAAAAAAAAAAAAAAAAAAAAAAAAAAAAAAAAAAAAAAAAAAAAAAAAAAAAAAAA11IIII
AAAAAAAAAAAAAAAAAAAAAAAAAAAAAAAAAAAAAAAAAAAAAAAAAAAAAAAAAAA11III
AAAAAAAAAAAAAAAAAAAAAAAAAAAAAAAAAAAAAAAAAAAAAAAAAAAAAAAAAAAA11II
AAAAAAAAAAAAAAAAAAAAAAAAAAAAAAAAAAAAAAAAAAAAAAAAAAAAAAAAAAAAA11I
AAAAAAAAAAAAAAAAAAAAAAAAAAAAAAAAAAAAAAAAAAAAAAAAAAAAAAAAAAAAAA11
AAAAAAAAAAAAAAAAAAAAAAAAAAAAAAAAAAAAAAAAAAAAAAAAAAAAAAAAAAAAAAA1
AAAAAAAAAAAAAAAAAAAAAAAAAAAAAAAAAAAAAAAAAAAAAAAAAAAAAAAAAAAAAAAA
[MLOP] Prefetch Degree Mean: 12.6476
[MLOP] Prefetch Degree SD: 1.07165
[MLOP] Max Score Left Mean (%): 79.3278
[MLOP] Max Score Left SD (%): 1.94949
[MLOP] Max Score Right Mean (%): 98.1097
[MLOP] Max Score Right SD (%): 0.723328
=== CPU 1 L1D Prefetcher Statistics ===
[MLOP] History of tracked zone:
IIIIIIIIIIIIIIIIIIIIIIIIIIIIIIIIIIIIIIIIIIIIIIIIIIIIIIIIIIIIIIII
A11IIIIIIIIIIIIIIIIIIIIIIIIIIIIIIIIIIIIIIIIIIIIIIIIIIIIIIIIIIIII
AA11IIIIIIIIIIIIIIIIIIIIIIIIIIIIIIIIIIIIIIIIIIIIIIIIIIIIIIIIIIII
AAA11IIIIIIIIIIIIIIIIIIIIIIIIIIIIIIIIIIIIIIIIIIIIIIIIIIIIIIIIIII
AAAA11IIIIIIIIIIIIIIIIIIIIIIIIIIIIIIIIIIIIIIIIIIIIIIIIIIIIIIIIII
AAAAA11IIIIIIIIIIIIIIIIIIIIIIIIIIIIIIIIIIIIIIIIIIIIIIIIIIIIIIIII
AAAAAA11IIIIIIIIIIIIIIIIIIIIIIIIIIIIIIIIIIIIIIIIIIIIIIIIIIIIIIII
AAAAAAA11IIIIIIIIIIIIIIIIIIIIIIIIIIIIIIIIIIIIIIIIIIIIIIIIIIIIIII
AAAAAAAA11IIIIIIIIIIIIIIIIIIIIIIIIIIIIIIIIIIIIIIIIIIIIIIIIIIIIII
AAAAAAAAA11IIIIIIIIIIIIIIIIIIIIIIIIIIIIIIIIIIIIIIIIIIIIIIIIIIIII
AAAAAAAAAA11IIIIIIIIIIIIIIIIIIIIIIIIIIIIIIIIIIIIIIIIIIIIIIIIIIII
AAAAAAAAAAA11IIIIIIIIIIIIIIIIIIIIIIIIIIIIIIIIIIIIIIIIIIIIIIIIIII
AAAAAAAAAAAA11IIIIIIIIIIIIIIIIIIIIIIIIIIIIIIIIIIIIIIIIIIIIIIIIII
AAAAAAAAAAAAA11IIIIIIIIIIIIIIIIIIIIIIIIIIIIIIIIIIIIIIIIIIIIIIIII
AAAAAAAAAAAAAA11IIIIIIIIIIIIIIIIIIIIIIIIIIIIIIIIIIIIIIIIIIIIIIII
AAAAAAAAAAAAAAA11IIIIIIIIIIIIIIIIIIIIIIIIIIIIIIIIIIIIIIIIIIIIIII
AAAAAAAAAAAAAAAA11IIIIIIIIIIIIIIIIIIIIIIIIIIIIIIIIIIIIIIIIIIIIII
AAAAAAAAAAAAAAAAA11IIIIIIIIIIIIIIIIIIIIIIIIIIIIIIIIIIIIIIIIIIIII
AAAAAAAAAAAAAAAAAA11IIIIIIIIIIIIIIIIIIIIIIIIIIIIIIIIIIIIIIIIIIII
AAAAAAAAAAAAAAAAAAA11IIIIIIIIIIIIIIIIIIIIIIIIIIIIIIIIIIIIIIIIIII
AAAAAAAAAAAAAAAAAAAA11IIIIIIIIIIIIIIIIIIIIIIIIIIIIIIIIIIIIIIIIII
AAAAAAAAAAAAAAAAAAAAA11IIIIIIIIIIIIIIIIIIIIIIIIIIIIIIIIIIIIIIIII
AAAAAAAAAAAAAAAAAAAAAA11IIIIIIIIIIIIIIIIIIIIIIIIIIIIIIIIIIIIIIII
AAAAAAAAAAAAAAAAAAAAAAA11IIIIIIIIIIIIIIIIIIIIIIIIIIIIIIIIIIIIIII
AAAAAAAAAAAAAAAAAAAAAAAA11IIIIIIIIIIIIIIIIIIIIIIIIIIIIIIIIIIIIII
AAAAAAAAAAAAAAAAAAAAAAAAA11IIIIIIIIIIIIIIIIIIIIIIIIIIIIIIIIIIIII
AAAAAAAAAAAAAAAAAAAAAAAAAA11IIIIIIIIIIIIIIIIIIIIIIIIIIIIIIIIIIII
AAAAAAAAAAAAAAAAAAAAAAAAAAA11IIIIIIIIIIIIIIIIIIIIIIIIIIIIIIIIIII
AAAAAAAAAAAAAAAAAAAAAAAAAAAA11IIIIIIIIIIIIIIIIIIIIIIIIIIIIIIIIII
AAAAAAAAAAAAAAAAAAAAAAAAAAAAA11IIIIIIIIIIIIIIIIIIIIIIIIIIIIIIIII
AAAAAAAAAAAAAAAAAAAAAAAAAAAAAA11IIIIIIIIIIIIIIIIIIIIIIIIIIIIIIII
AAAAAAAAAAAAAAAAAAAAAAAAAAAAAAA11IIIIIIIIIIIIIIIIIIIIIIIIIIIIIII
AAAAAAAAAAAAAAAAAAAAAAAAAAAAAAAA11IIIIIIIIIIIIIIIIIIIIIIIIIIIIII
AAAAAAAAAAAAAAAAAAAAAAAAAAAAAAAAA11IIIIIIIIIIIIIIIIIIIIIIIIIIIII
AAAAAAAAAAAAAAAAAAAAAAAAAAAAAAAAAA11IIIIIIIIIIIIIIIIIIIIIIIIIIII
AAAAAAAAAAAAAAAAAAAAAAAAAAAAAAAAAAA11IIIIIIIIIIIIIIIIIIIIIIIIIII
AAAAAAAAAAAAAAAAAAAAAAAAAAAAAAAAAAAA11IIIIIIIIIIIIIIIIIIIIIIIIII
AAAAAAAAAAAAAAAAAAAAAAAAAAAAAAAAAAAAA11IIIIIIIIIIIIIIIIIIIIIIIII
AAAAAAAAAAAAAAAAAAAAAAAAAAAAAAAAAAAAAA11IIIIIIIIIIIIIIIIIIIIIIII
AAAAAAAAAAAAAAAAAAAAAAAAAAAAAAAAAAAAAAA11IIIIIIIIIIIIIIIIIIIIIII
AAAAAAAAAAAAAAAAAAAAAAAAAAAAAAAAAAAAAAAA11IIIIIIIIIIIIIIIIIIIIII
AAAAAAAAAAAAAAAAAAAAAAAAAAAAAAAAAAAAAAAAA11IIIIIIIIIIIIIIIIIIIII
AAAAAAAAAAAAAAAAAAAAAAAAAAAAAAAAAAAAAAAAAA11IIIIIIIIIIIIIIIIIIII
AAAAAAAAAAAAAAAAAAAAAAAAAAAAAAAAAAAAAAAAAAA11IIIIIIIIIIIIIIIIIII
AAAAAAAAAAAAAAAAAAAAAAAAAAAAAAAAAAAAAAAAAAAA11IIIIIIIIIIIIIIIIII
AAAAAAAAAAAAAAAAAAAAAAAAAAAAAAAAAAAAAAAAAAAAA11IIIIIIIIIIIIIIIII
AAAAAAAAAAAAAAAAAAAAAAAAAAAAAAAAAAAAAAAAAAAAAA11IIIIIIIIIIIIIIII
AAAAAAAAAAAAAAAAAAAAAAAAAAAAAAAAAAAAAAAAAAAAAAA11IIIIIIIIIIIIIII
AAAAAAAAAAAAAAAAAAAAAAAAAAAAAAAAAAAAAAAAAAAAAAAA11IIIIIIIIIIIIII
AAAAAAAAAAAAAAAAAAAAAAAAAAAAAAAAAAAAAAAAAAAAAAAAA11IIIIIIIIIIIII
AAAAAAAAAAAAAAAAAAAAAAAAAAAAAAAAAAAAAAAAAAAAAAAAAA11IIIIIIIIIIII
AAAAAAAAAAAAAAAAAAAAAAAAAAAAAAAAAAAAAAAAAAAAAAAAAAA11IIIIIIIIIII
AAAAAAAAAAAAAAAAAAAAAAAAAAAAAAAAAAAAAAAAAAAAAAAAAAAA11IIIIIIIIII
AAAAAAAAAAAAAAAAAAAAAAAAAAAAAAAAAAAAAAAAAAAAAAAAAAAAA11IIIIIIIII
AAAAAAAAAAAAAAAAAAAAAAAAAAAAAAAAAAAAAAAAAAAAAAAAAAAAAA11IIIIIIII
AAAAAAAAAAAAAAAAAAAAAAAAAAAAAAAAAAAAAAAAAAAAAAAAAAAAAAA11IIIIIII
AAAAAAAAAAAAAAAAAAAAAAAAAAAAAAAAAAAAAAAAAAAAAAAAAAAAAAAA11IIIIII
AAAAAAAAAAAAAAAAAAAAAAAAAAAAAAAAAAAAAAAAAAAAAAAAAAAAAAAAA11IIIII
AAAAAAAAAAAAAAAAAAAAAAAAAAAAAAAAAAAAAAAAAAAAAAAAAAAAAAAAAA11IIII
AAAAAAAAAAAAAAAAAAAAAAAAAAAAAAAAAAAAAAAAAAAAAAAAAAAAAAAAAAA11III
AAAAAAAAAAAAAAAAAAAAAAAAAAAAAAAAAAAAAAAAAAAAAAAAAAAAAAAAAAAA11II
AAAAAAAAAAAAAAAAAAAAAAAAAAAAAAAAAAAAAAAAAAAAAAAAAAAAAAAAAAAAA11I
AAAAAAAAAAAAAAAAAAAAAAAAAAAAAAAAAAAAAAAAAAAAAAAAAAAAAAAAAAAAAA11
AAAAAAAAAAAAAAAAAAAAAAAAAAAAAAAAAAAAAAAAAAAAAAAAAAAAAAAAAAAAAAA1
AAAAAAAAAAAAAAAAAAAAAAAAAAAAAAAAAAAAAAAAAAAAAAAAAAAAAAAAAAAAAAAA
[MLOP] Prefetch Degree Mean: 12.6339
[MLOP] Prefetch Degree SD: 1.07006
[MLOP] Max Score Left Mean (%): 79.2639
[MLOP] Max Score Left SD (%): 2.00828
[MLOP] Max Score Right Mean (%): 98.1458
[MLOP] Max Score Right SD (%): 0.720454
=== CPU 2 L1D Prefetcher Statistics ===
[MLOP] History of tracked zone:
IIIIIIIIIIIIIIIIIIIIIIIIIIIIIIIIIIIIIIIIIIIIIIIIIIIIIIIIIIIIIIII
A11IIIIIIIIIIIIIIIIIIIIIIIIIIIIIIIIIIIIIIIIIIIIIIIIIIIIIIIIIIIII
AA11IIIIIIIIIIIIIIIIIIIIIIIIIIIIIIIIIIIIIIIIIIIIIIIIIIIIIIIIIIII
AAA11IIIIIIIIIIIIIIIIIIIIIIIIIIIIIIIIIIIIIIIIIIIIIIIIIIIIIIIIIII
AAAA11IIIIIIIIIIIIIIIIIIIIIIIIIIIIIIIIIIIIIIIIIIIIIIIIIIIIIIIIII
AAAAA11IIIIIIIIIIIIIIIIIIIIIIIIIIIIIIIIIIIIIIIIIIIIIIIIIIIIIIIII
AAAAAA11IIIIIIIIIIIIIIIIIIIIIIIIIIIIIIIIIIIIIIIIIIIIIIIIIIIIIIII
AAAAAAA11IIIIIIIIIIIIIIIIIIIIIIIIIIIIIIIIIIIIIIIIIIIIIIIIIIIIIII
AAAAAAAA11IIIIIIIIIIIIIIIIIIIIIIIIIIIIIIIIIIIIIIIIIIIIIIIIIIIIII
AAAAAAAAA11IIIIIIIIIIIIIIIIIIIIIIIIIIIIIIIIIIIIIIIIIIIIIIIIIIIII
AAAAAAAAAA11IIIIIIIIIIIIIIIIIIIIIIIIIIIIIIIIIIIIIIIIIIIIIIIIIIII
AAAAAAAAAAA11IIIIIIIIIIIIIIIIIIIIIIIIIIIIIIIIIIIIIIIIIIIIIIIIIII
AAAAAAAAAAAA11IIIIIIIIIIIIIIIIIIIIIIIIIIIIIIIIIIIIIIIIIIIIIIIIII
AAAAAAAAAAAAA11IIIIIIIIIIIIIIIIIIIIIIIIIIIIIIIIIIIIIIIIIIIIIIIII
AAAAAAAAAAAAAA11IIIIIIIIIIIIIIIIIIIIIIIIIIIIIIIIIIIIIIIIIIIIIIII
AAAAAAAAAAAAAAA11IIIIIIIIIIIIIIIIIIIIIIIIIIIIIIIIIIIIIIIIIIIIIII
AAAAAAAAAAAAAAAA11IIIIIIIIIIIIIIIIIIIIIIIIIIIIIIIIIIIIIIIIIIIIII
AAAAAAAAAAAAAAAAA11IIIIIIIIIIIIIIIIIIIIIIIIIIIIIIIIIIIIIIIIIIIII
AAAAAAAAAAAAAAAAAA11IIIIIIIIIIIIIIIIIIIIIIIIIIIIIIIIIIIIIIIIIIII
AAAAAAAAAAAAAAAAAAA11IIIIIIIIIIIIIIIIIIIIIIIIIIIIIIIIIIIIIIIIIII
AAAAAAAAAAAAAAAAAAAA11IIIIIIIIIIIIIIIIIIIIIIIIIIIIIIIIIIIIIIIIII
AAAAAAAAAAAAAAAAAAAAA11IIIIIIIIIIIIIIIIIIIIIIIIIIIIIIIIIIIIIIIII
AAAAAAAAAAAAAAAAAAAAAA11IIIIIIIIIIIIIIIIIIIIIIIIIIIIIIIIIIIIIIII
AAAAAAAAAAAAAAAAAAAAAAA11IIIIIIIIIIIIIIIIIIIIIIIIIIIIIIIIIIIIIII
AAAAAAAAAAAAAAAAAAAAAAAA11IIIIIIIIIIIIIIIIIIIIIIIIIIIIIIIIIIIIII
AAAAAAAAAAAAAAAAAAAAAAAAA11IIIIIIIIIIIIIIIIIIIIIIIIIIIIIIIIIIIII
AAAAAAAAAAAAAAAAAAAAAAAAAA11IIIIIIIIIIIIIIIIIIIIIIIIIIIIIIIIIIII
AAAAAAAAAAAAAAAAAAAAAAAAAAA11IIIIIIIIIIIIIIIIIIIIIIIIIIIIIIIIIII
AAAAAAAAAAAAAAAAAAAAAAAAAAAA11IIIIIIIIIIIIIIIIIIIIIIIIIIIIIIIIII
AAAAAAAAAAAAAAAAAAAAAAAAAAAAA11IIIIIIIIIIIIIIIIIIIIIIIIIIIIIIIII
AAAAAAAAAAAAAAAAAAAAAAAAAAAAAA11IIIIIIIIIIIIIIIIIIIIIIIIIIIIIIII
AAAAAAAAAAAAAAAAAAAAAAAAAAAAAAA11IIIIIIIIIIIIIIIIIIIIIIIIIIIIIII
AAAAAAAAAAAAAAAAAAAAAAAAAAAAAAAA11IIIIIIIIIIIIIIIIIIIIIIIIIIIIII
AAAAAAAAAAAAAAAAAAAAAAAAAAAAAAAAA11IIIIIIIIIIIIIIIIIIIIIIIIIIIII
AAAAAAAAAAAAAAAAAAAAAAAAAAAAAAAAAA11IIIIIIIIIIIIIIIIIIIIIIIIIIII
AAAAAAAAAAAAAAAAAAAAAAAAAAAAAAAAAAA11IIIIIIIIIIIIIIIIIIIIIIIIIII
AAAAAAAAAAAAAAAAAAAAAAAAAAAAAAAAAAAA11IIIIIIIIIIIIIIIIIIIIIIIIII
AAAAAAAAAAAAAAAAAAAAAAAAAAAAAAAAAAAAA11IIIIIIIIIIIIIIIIIIIIIIIII
AAAAAAAAAAAAAAAAAAAAAAAAAAAAAAAAAAAAAA11IIIIIIIIIIIIIIIIIIIIIIII
AAAAAAAAAAAAAAAAAAAAAAAAAAAAAAAAAAAAAAA11IIIIIIIIIIIIIIIIIIIIIII
AAAAAAAAAAAAAAAAAAAAAAAAAAAAAAAAAAAAAAAA11IIIIIIIIIIIIIIIIIIIIII
AAAAAAAAAAAAAAAAAAAAAAAAAAAAAAAAAAAAAAAAA11IIIIIIIIIIIIIIIIIIIII
AAAAAAAAAAAAAAAAAAAAAAAAAAAAAAAAAAAAAAAAAA11IIIIIIIIIIIIIIIIIIII
AAAAAAAAAAAAAAAAAAAAAAAAAAAAAAAAAAAAAAAAAAA11IIIIIIIIIIIIIIIIIII
AAAAAAAAAAAAAAAAAAAAAAAAAAAAAAAAAAAAAAAAAAAA11IIIIIIIIIIIIIIIIII
AAAAAAAAAAAAAAAAAAAAAAAAAAAAAAAAAAAAAAAAAAAAA11IIIIIIIIIIIIIIIII
AAAAAAAAAAAAAAAAAAAAAAAAAAAAAAAAAAAAAAAAAAAAAA11IIIIIIIIIIIIIIII
AAAAAAAAAAAAAAAAAAAAAAAAAAAAAAAAAAAAAAAAAAAAAAA11IIIIIIIIIIIIIII
AAAAAAAAAAAAAAAAAAAAAAAAAAAAAAAAAAAAAAAAAAAAAAAA11IIIIIIIIIIIIII
AAAAAAAAAAAAAAAAAAAAAAAAAAAAAAAAAAAAAAAAAAAAAAAAA11IIIIIIIIIIIII
AAAAAAAAAAAAAAAAAAAAAAAAAAAAAAAAAAAAAAAAAAAAAAAAAA11IIIIIIIIIIII
AAAAAAAAAAAAAAAAAAAAAAAAAAAAAAAAAAAAAAAAAAAAAAAAAAA11IIIIIIIIIII
AAAAAAAAAAAAAAAAAAAAAAAAAAAAAAAAAAAAAAAAAAAAAAAAAAAA11IIIIIIIIII
AAAAAAAAAAAAAAAAAAAAAAAAAAAAAAAAAAAAAAAAAAAAAAAAAAAAA11IIIIIIIII
AAAAAAAAAAAAAAAAAAAAAAAAAAAAAAAAAAAAAAAAAAAAAAAAAAAAAA11IIIIIIII
AAAAAAAAAAAAAAAAAAAAAAAAAAAAAAAAAAAAAAAAAAAAAAAAAAAAAAA11IIIIIII
AAAAAAAAAAAAAAAAAAAAAAAAAAAAAAAAAAAAAAAAAAAAAAAAAAAAAAAA11IIIIII
AAAAAAAAAAAAAAAAAAAAAAAAAAAAAAAAAAAAAAAAAAAAAAAAAAAAAAAAA11IIIII
AAAAAAAAAAAAAAAAAAAAAAAAAAAAAAAAAAAAAAAAAAAAAAAAAAAAAAAAAA11IIII
AAAAAAAAAAAAAAAAAAAAAAAAAAAAAAAAAAAAAAAAAAAAAAAAAAAAAAAAAAA11III
AAAAAAAAAAAAAAAAAAAAAAAAAAAAAAAAAAAAAAAAAAAAAAAAAAAAAAAAAAAA11II
AAAAAAAAAAAAAAAAAAAAAAAAAAAAAAAAAAAAAAAAAAAAAAAAAAAAAAAAAAAAA11I
AAAAAAAAAAAAAAAAAAAAAAAAAAAAAAAAAAAAAAAAAAAAAAAAAAAAAAAAAAAAAA11
AAAAAAAAAAAAAAAAAAAAAAAAAAAAAAAAAAAAAAAAAAAAAAAAAAAAAAAAAAAAAAA1
AAAAAAAAAAAAAAAAAAAAAAAAAAAAAAAAAAAAAAAAAAAAAAAAAAAAAAAAAAAAAAAA
[MLOP] Prefetch Degree Mean: 12.6338
[MLOP] Prefetch Degree SD: 1.06656
[MLOP] Max Score Left Mean (%): 79.245
[MLOP] Max Score Left SD (%): 1.9896
[MLOP] Max Score Right Mean (%): 98.1477
[MLOP] Max Score Right SD (%): 0.708258
=== CPU 3 L1D Prefetcher Statistics ===
[MLOP] History of tracked zone:
IIIIIIIIIIIIIIIIIIIIIIIIIIIIIIIIIIIIIIIIIIIIIIIIIIIIIIIIIIIIIIII
A11IIIIIIIIIIIIIIIIIIIIIIIIIIIIIIIIIIIIIIIIIIIIIIIIIIIIIIIIIIIII
AA11IIIIIIIIIIIIIIIIIIIIIIIIIIIIIIIIIIIIIIIIIIIIIIIIIIIIIIIIIIII
AAA11IIIIIIIIIIIIIIIIIIIIIIIIIIIIIIIIIIIIIIIIIIIIIIIIIIIIIIIIIII
AAAA11IIIIIIIIIIIIIIIIIIIIIIIIIIIIIIIIIIIIIIIIIIIIIIIIIIIIIIIIII
AAAAA11IIIIIIIIIIIIIIIIIIIIIIIIIIIIIIIIIIIIIIIIIIIIIIIIIIIIIIIII
AAAAAA11IIIIIIIIIIIIIIIIIIIIIIIIIIIIIIIIIIIIIIIIIIIIIIIIIIIIIIII
AAAAAAA11IIIIIIIIIIIIIIIIIIIIIIIIIIIIIIIIIIIIIIIIIIIIIIIIIIIIIII
AAAAAAAA11IIIIIIIIIIIIIIIIIIIIIIIIIIIIIIIIIIIIIIIIIIIIIIIIIIIIII
AAAAAAAAA11IIIIIIIIIIIIIIIIIIIIIIIIIIIIIIIIIIIIIIIIIIIIIIIIIIIII
AAAAAAAAAA11IIIIIIIIIIIIIIIIIIIIIIIIIIIIIIIIIIIIIIIIIIIIIIIIIIII
AAAAAAAAAAA11IIIIIIIIIIIIIIIIIIIIIIIIIIIIIIIIIIIIIIIIIIIIIIIIIII
AAAAAAAAAAAA11IIIIIIIIIIIIIIIIIIIIIIIIIIIIIIIIIIIIIIIIIIIIIIIIII
AAAAAAAAAAAAA11IIIIIIIIIIIIIIIIIIIIIIIIIIIIIIIIIIIIIIIIIIIIIIIII
AAAAAAAAAAAAAA11IIIIIIIIIIIIIIIIIIIIIIIIIIIIIIIIIIIIIIIIIIIIIIII
AAAAAAAAAAAAAAA11IIIIIIIIIIIIIIIIIIIIIIIIIIIIIIIIIIIIIIIIIIIIIII
AAAAAAAAAAAAAAAA11IIIIIIIIIIIIIIIIIIIIIIIIIIIIIIIIIIIIIIIIIIIIII
AAAAAAAAAAAAAAAAA11IIIIIIIIIIIIIIIIIIIIIIIIIIIIIIIIIIIIIIIIIIIII
AAAAAAAAAAAAAAAAAA11IIIIIIIIIIIIIIIIIIIIIIIIIIIIIIIIIIIIIIIIIIII
AAAAAAAAAAAAAAAAAAA11IIIIIIIIIIIIIIIIIIIIIIIIIIIIIIIIIIIIIIIIIII
AAAAAAAAAAAAAAAAAAAA11IIIIIIIIIIIIIIIIIIIIIIIIIIIIIIIIIIIIIIIIII
AAAAAAAAAAAAAAAAAAAAA11IIIIIIIIIIIIIIIIIIIIIIIIIIIIIIIIIIIIIIIII
AAAAAAAAAAAAAAAAAAAAAA11IIIIIIIIIIIIIIIIIIIIIIIIIIIIIIIIIIIIIIII
AAAAAAAAAAAAAAAAAAAAAAA11IIIIIIIIIIIIIIIIIIIIIIIIIIIIIIIIIIIIIII
AAAAAAAAAAAAAAAAAAAAAAAA11IIIIIIIIIIIIIIIIIIIIIIIIIIIIIIIIIIIIII
AAAAAAAAAAAAAAAAAAAAAAAAA11IIIIIIIIIIIIIIIIIIIIIIIIIIIIIIIIIIIII
AAAAAAAAAAAAAAAAAAAAAAAAAA11IIIIIIIIIIIIIIIIIIIIIIIIIIIIIIIIIIII
AAAAAAAAAAAAAAAAAAAAAAAAAAA11IIIIIIIIIIIIIIIIIIIIIIIIIIIIIIIIIII
AAAAAAAAAAAAAAAAAAAAAAAAAAAA11IIIIIIIIIIIIIIIIIIIIIIIIIIIIIIIIII
AAAAAAAAAAAAAAAAAAAAAAAAAAAAA11IIIIIIIIIIIIIIIIIIIIIIIIIIIIIIIII
AAAAAAAAAAAAAAAAAAAAAAAAAAAAAA11IIIIIIIIIIIIIIIIIIIIIIIIIIIIIIII
AAAAAAAAAAAAAAAAAAAAAAAAAAAAAAA11IIIIIIIIIIIIIIIIIIIIIIIIIIIIIII
AAAAAAAAAAAAAAAAAAAAAAAAAAAAAAAA11IIIIIIIIIIIIIIIIIIIIIIIIIIIIII
AAAAAAAAAAAAAAAAAAAAAAAAAAAAAAAAA11IIIIIIIIIIIIIIIIIIIIIIIIIIIII
AAAAAAAAAAAAAAAAAAAAAAAAAAAAAAAAAA11IIIIIIIIIIIIIIIIIIIIIIIIIIII
AAAAAAAAAAAAAAAAAAAAAAAAAAAAAAAAAAA11IIIIIIIIIIIIIIIIIIIIIIIIIII
AAAAAAAAAAAAAAAAAAAAAAAAAAAAAAAAAAAA11IIIIIIIIIIIIIIIIIIIIIIIIII
AAAAAAAAAAAAAAAAAAAAAAAAAAAAAAAAAAAAA11IIIIIIIIIIIIIIIIIIIIIIIII
AAAAAAAAAAAAAAAAAAAAAAAAAAAAAAAAAAAAAA11IIIIIIIIIIIIIIIIIIIIIIII
AAAAAAAAAAAAAAAAAAAAAAAAAAAAAAAAAAAAAAA11IIIIIIIIIIIIIIIIIIIIIII
AAAAAAAAAAAAAAAAAAAAAAAAAAAAAAAAAAAAAAAA11IIIIIIIIIIIIIIIIIIIIII
AAAAAAAAAAAAAAAAAAAAAAAAAAAAAAAAAAAAAAAAA11IIIIIIIIIIIIIIIIIIIII
AAAAAAAAAAAAAAAAAAAAAAAAAAAAAAAAAAAAAAAAAA11IIIIIIIIIIIIIIIIIIII
AAAAAAAAAAAAAAAAAAAAAAAAAAAAAAAAAAAAAAAAAAA11IIIIIIIIIIIIIIIIIII
AAAAAAAAAAAAAAAAAAAAAAAAAAAAAAAAAAAAAAAAAAAA11IIIIIIIIIIIIIIIIII
AAAAAAAAAAAAAAAAAAAAAAAAAAAAAAAAAAAAAAAAAAAAA11IIIIIIIIIIIIIIIII
AAAAAAAAAAAAAAAAAAAAAAAAAAAAAAAAAAAAAAAAAAAAAA11IIIIIIIIIIIIIIII
AAAAAAAAAAAAAAAAAAAAAAAAAAAAAAAAAAAAAAAAAAAAAAA11IIIIIIIIIIIIIII
AAAAAAAAAAAAAAAAAAAAAAAAAAAAAAAAAAAAAAAAAAAAAAAA11IIIIIIIIIIIIII
AAAAAAAAAAAAAAAAAAAAAAAAAAAAAAAAAAAAAAAAAAAAAAAAA11IIIIIIIIIIIII
AAAAAAAAAAAAAAAAAAAAAAAAAAAAAAAAAAAAAAAAAAAAAAAAAA11IIIIIIIIIIII
AAAAAAAAAAAAAAAAAAAAAAAAAAAAAAAAAAAAAAAAAAAAAAAAAAA11IIIIIIIIIII
AAAAAAAAAAAAAAAAAAAAAAAAAAAAAAAAAAAAAAAAAAAAAAAAAAAA11IIIIIIIIII
AAAAAAAAAAAAAAAAAAAAAAAAAAAAAAAAAAAAAAAAAAAAAAAAAAAAA11IIIIIIIII
AAAAAAAAAAAAAAAAAAAAAAAAAAAAAAAAAAAAAAAAAAAAAAAAAAAAAA11IIIIIIII
AAAAAAAAAAAAAAAAAAAAAAAAAAAAAAAAAAAAAAAAAAAAAAAAAAAAAAA11IIIIIII
AAAAAAAAAAAAAAAAAAAAAAAAAAAAAAAAAAAAAAAAAAAAAAAAAAAAAAAA11IIIIII
AAAAAAAAAAAAAAAAAAAAAAAAAAAAAAAAAAAAAAAAAAAAAAAAAAAAAAAAA11IIIII
AAAAAAAAAAAAAAAAAAAAAAAAAAAAAAAAAAAAAAAAAAAAAAAAAAAAAAAAAA11IIII
AAAAAAAAAAAAAAAAAAAAAAAAAAAAAAAAAAAAAAAAAAAAAAAAAAAAAAAAAAA11III
AAAAAAAAAAAAAAAAAAAAAAAAAAAAAAAAAAAAAAAAAAAAAAAAAAAAAAAAAAAA11II
AAAAAAAAAAAAAAAAAAAAAAAAAAAAAAAAAAAAAAAAAAAAAAAAAAAAAAAAAAAAA11I
AAAAAAAAAAAAAAAAAAAAAAAAAAAAAAAAAAAAAAAAAAAAAAAAAAAAAAAAAAAAAA11
AAAAAAAAAAAAAAAAAAAAAAAAAAAAAAAAAAAAAAAAAAAAAAAAAAAAAAAAAAAAAAA1
AAAAAAAAAAAAAAAAAAAAAAAAAAAAAAAAAAAAAAAAAAAAAAAAAAAAAAAAAAAAAAAA
[MLOP] Prefetch Degree Mean: 12.6456
[MLOP] Prefetch Degree SD: 1.07934
[MLOP] Max Score Left Mean (%): 79.2713
[MLOP] Max Score Left SD (%): 2.02584
[MLOP] Max Score Right Mean (%): 98.123
[MLOP] Max Score Right SD (%): 0.731366

DRAM Statistics
 CHANNEL 0
 RQ ROW_BUFFER_HIT:    8905111  ROW_BUFFER_MISS:    6418820
 DBUS_CONGESTED:         42
 WQ ROW_BUFFER_HIT:    1555516  ROW_BUFFER_MISS:    6087592  FULL:          0

 AVG_CONGESTED_CYCLE: 5
 All warmup complete: 5
Channel 0 Bank busy for read cycles: 0
Channel 0 Bank busy for write cycles: 0
Channel 0
Rank 0
0banks busy for read cycles: 102766
0banks busy for write cycles: 0
1banks busy for read cycles: 5984356
1banks busy for write cycles: 766619
2banks busy for read cycles: 11536527
2banks busy for write cycles: 766601
3banks busy for read cycles: 16464279
3banks busy for write cycles: 766588
4banks busy for read cycles: 19011762
4banks busy for write cycles: 766577
5banks busy for read cycles: 18275805
5banks busy for write cycles: 767024
6banks busy for read cycles: 15735624
6banks busy for write cycles: 846821
7banks busy for read cycles: 22696996
7banks busy for write cycles: 10158582
8banks busy for read cycles: 129860874
8banks busy for write cycles: 150831834

CPU 0 Branch Prediction Accuracy: 99.9775% MPKI: 0.074768 Average ROB Occupancy at Mispredict: 59.8286
Branch types
NOT_BRANCH: 133836152 66.7022%
BRANCH_DIRECT_JUMP: 14 6.97742e-06%
BRANCH_INDIRECT: 0 0%
BRANCH_CONDITIONAL: 66811170 33.2978%
BRANCH_DIRECT_CALL: 6 2.99032e-06%
BRANCH_INDIRECT_CALL: 1 4.98387e-07%
BRANCH_RETURN: 8 3.98709e-06%
BRANCH_OTHER: 0 0%


CPU 1 Branch Prediction Accuracy: 99.9776% MPKI: 0.074623 Average ROB Occupancy at Mispredict: 59.1305
Branch types
NOT_BRANCH: 133496436 66.7151%
BRANCH_DIRECT_JUMP: 14 6.99653e-06%
BRANCH_INDIRECT: 0 0%
BRANCH_CONDITIONAL: 66602433 33.2847%
BRANCH_DIRECT_CALL: 6 2.99851e-06%
BRANCH_INDIRECT_CALL: 1 4.99752e-07%
BRANCH_RETURN: 8 3.99802e-06%
BRANCH_OTHER: 0 0%


CPU 2 Branch Prediction Accuracy: 99.9776% MPKI: 0.074575 Average ROB Occupancy at Mispredict: 59.3598
Branch types
NOT_BRANCH: 133434971 66.7175%
BRANCH_DIRECT_JUMP: 14 7e-06%
BRANCH_INDIRECT: 0 0%
BRANCH_CONDITIONAL: 66564665 33.2823%
BRANCH_DIRECT_CALL: 6 3e-06%
BRANCH_INDIRECT_CALL: 1 5e-07%
BRANCH_RETURN: 8 4e-06%
BRANCH_OTHER: 0 0%


CPU 3 Branch Prediction Accuracy: 99.9776% MPKI: 0.0745865 Average ROB Occupancy at Mispredict: 59.0354
Branch types
NOT_BRANCH: 133457462 66.7166%
BRANCH_DIRECT_JUMP: 14 6.99873e-06%
BRANCH_INDIRECT: 0 0%
BRANCH_CONDITIONAL: 66578486 33.2832%
BRANCH_DIRECT_CALL: 6 2.99946e-06%
BRANCH_INDIRECT_CALL: 1 4.99909e-07%
BRANCH_RETURN: 8 3.99928e-06%
BRANCH_OTHER: 0 0%

DRAM PAGES: 1048576
Allocated PAGES: 258152
