
*** ChampSim Multicore Out-of-Order Simulator ***

Warmup Instructions: 50000000
Simulation Instructions: 200000000
Number of CPUs: 4
LLC sets: 8192
LLC ways: 16
Off-chip DRAM Size: 4096 MB Channels: 1 Width: 64-bit Data Rate: 6400 MT/s
CPU 0 runs ./traces/spec/607.cactuBSSN_s-3477B.champsimtrace.xz
.xz
CPU 1 runs ./traces/ligra/ligra_BellmanFord.com-lj.ungraph.gcc_6.3.0_O3.drop_7500M.length_250M.champsimtrace.xz
.xz
CPU 2 runs ./traces/ligra/ligra_Components.com-lj.ungraph.gcc_6.3.0_O3.drop_6250M.length_250M.champsimtrace.xz
.xz
CPU 3 runs ./traces/spec/619.lbm_s-2677B.champsimtrace.xz
.xz
BTB has LRU replacement policy
ITLB has LRU replacement policy
DTLB has LRU replacement policy
STLB has LRU replacement policy
L1I has LRU replacement policy
L1D has LRU replacement policy
Initialize SRRIP state for L2C
Initialize DRRIP state for LLC
BTB has LRU replacement policy
ITLB has LRU replacement policy
DTLB has LRU replacement policy
STLB has LRU replacement policy
L1I has LRU replacement policy
L1D has LRU replacement policy
Initialize SRRIP state for L2C
Initialize DRRIP state for LLC
BTB has LRU replacement policy
ITLB has LRU replacement policy
DTLB has LRU replacement policy
STLB has LRU replacement policy
L1I has LRU replacement policy
L1D has LRU replacement policy
Initialize SRRIP state for L2C
Initialize DRRIP state for LLC
BTB has LRU replacement policy
ITLB has LRU replacement policy
DTLB has LRU replacement policy
STLB has LRU replacement policy
L1I has LRU replacement policy
L1D has LRU replacement policy
Initialize SRRIP state for L2C
Initialize DRRIP state for LLC
Heartbeat CPU 3 instructions: 10000001 cycles: 2912711 heartbeat IPC: 3.43323 cumulative IPC: 3.43323 (Simulation time: 0 hr 2 min 38 sec) 
Heartbeat CPU 2 instructions: 10000000 cycles: 3333346 heartbeat IPC: 2.99999 cumulative IPC: 2.99999 (Simulation time: 0 hr 3 min 0 sec) 
Heartbeat CPU 0 instructions: 10000000 cycles: 3673697 heartbeat IPC: 2.72205 cumulative IPC: 2.72205 (Simulation time: 0 hr 3 min 17 sec) 
Heartbeat CPU 1 instructions: 10000002 cycles: 3836120 heartbeat IPC: 2.6068 cumulative IPC: 2.6068 (Simulation time: 0 hr 3 min 27 sec) 
Heartbeat CPU 3 instructions: 20000001 cycles: 5814773 heartbeat IPC: 3.44583 cumulative IPC: 3.43952 (Simulation time: 0 hr 5 min 20 sec) 
Heartbeat CPU 2 instructions: 20000001 cycles: 6666680 heartbeat IPC: 3 cumulative IPC: 2.99999 (Simulation time: 0 hr 6 min 6 sec) 
Heartbeat CPU 0 instructions: 20000003 cycles: 7345374 heartbeat IPC: 2.72355 cumulative IPC: 2.7228 (Simulation time: 0 hr 6 min 44 sec) 
Heartbeat CPU 1 instructions: 20000001 cycles: 7672162 heartbeat IPC: 2.60685 cumulative IPC: 2.60683 (Simulation time: 0 hr 7 min 1 sec) 
Heartbeat CPU 3 instructions: 30000000 cycles: 8723744 heartbeat IPC: 3.43764 cumulative IPC: 3.43889 (Simulation time: 0 hr 7 min 58 sec) 
Heartbeat CPU 2 instructions: 30000000 cycles: 10000012 heartbeat IPC: 3 cumulative IPC: 3 (Simulation time: 0 hr 9 min 3 sec) 
Heartbeat CPU 0 instructions: 30000000 cycles: 11016791 heartbeat IPC: 2.72374 cumulative IPC: 2.72312 (Simulation time: 0 hr 9 min 52 sec) 
Heartbeat CPU 1 instructions: 30000002 cycles: 11508153 heartbeat IPC: 2.60689 cumulative IPC: 2.60685 (Simulation time: 0 hr 10 min 18 sec) 
Heartbeat CPU 3 instructions: 40000000 cycles: 11630115 heartbeat IPC: 3.44072 cumulative IPC: 3.43935 (Simulation time: 0 hr 10 min 25 sec) 
Heartbeat CPU 2 instructions: 40000000 cycles: 13333345 heartbeat IPC: 3 cumulative IPC: 3 (Simulation time: 0 hr 11 min 54 sec) 
Heartbeat CPU 3 instructions: 50000001 cycles: 14544907 heartbeat IPC: 3.43078 cumulative IPC: 3.43763 (Simulation time: 0 hr 12 min 54 sec) 
Heartbeat CPU 0 instructions: 40000003 cycles: 14688323 heartbeat IPC: 2.72366 cumulative IPC: 2.72325 (Simulation time: 0 hr 13 min 2 sec) 
Heartbeat CPU 1 instructions: 40000002 cycles: 15344149 heartbeat IPC: 2.60688 cumulative IPC: 2.60686 (Simulation time: 0 hr 13 min 38 sec) 
Heartbeat CPU 2 instructions: 50000000 cycles: 16666679 heartbeat IPC: 3 cumulative IPC: 3 (Simulation time: 0 hr 14 min 43 sec) 
Heartbeat CPU 3 instructions: 60000003 cycles: 17459470 heartbeat IPC: 3.43105 cumulative IPC: 0.572755 (Simulation time: 0 hr 15 min 28 sec) 
Heartbeat CPU 0 instructions: 50000000 cycles: 18362062 heartbeat IPC: 2.72202 cumulative IPC: 2.72301 (Simulation time: 0 hr 16 min 15 sec) 
Heartbeat CPU 1 instructions: 50000000 cycles: 19180182 heartbeat IPC: 2.60686 cumulative IPC: 2.60686 (Simulation time: 0 hr 16 min 59 sec) 

Warmup complete CPU 0 instructions: 52235699 cycles: 19180183 (Simulation time: 0 hr 16 min 59 sec) 
Warmup complete CPU 1 instructions: 50000003 cycles: 19180183 (Simulation time: 0 hr 16 min 59 sec) 
Warmup complete CPU 2 instructions: 57540501 cycles: 19180182 (Simulation time: 0 hr 16 min 59 sec) 
Warmup complete CPU 3 instructions: 65908817 cycles: 19180182 (Simulation time: 0 hr 16 min 59 sec) 

Heartbeat CPU 0 instructions: 60000000 cycles: 29963060 heartbeat IPC: 0.861995 cumulative IPC: 0.720058 (Simulation time: 0 hr 19 min 46 sec) 
Heartbeat CPU 1 instructions: 60000001 cycles: 34281528 heartbeat IPC: 0.662193 cumulative IPC: 0.662193 (Simulation time: 0 hr 20 min 49 sec) 
Heartbeat CPU 3 instructions: 70000002 cycles: 35144267 heartbeat IPC: 0.565457 cumulative IPC: 0.256274 (Simulation time: 0 hr 21 min 3 sec) 
Heartbeat CPU 2 instructions: 60000000 cycles: 35335611 heartbeat IPC: 0.535649 cumulative IPC: 0.15224 (Simulation time: 0 hr 21 min 6 sec) 
Heartbeat CPU 0 instructions: 70000001 cycles: 40238522 heartbeat IPC: 0.973192 cumulative IPC: 0.843576 (Simulation time: 0 hr 22 min 28 sec) 
Heartbeat CPU 1 instructions: 70000002 cycles: 48826695 heartbeat IPC: 0.687514 cumulative IPC: 0.674616 (Simulation time: 0 hr 24 min 41 sec) 
Heartbeat CPU 0 instructions: 80000003 cycles: 50490174 heartbeat IPC: 0.975453 cumulative IPC: 0.886755 (Simulation time: 0 hr 25 min 7 sec) 
Heartbeat CPU 0 instructions: 90000002 cycles: 60495014 heartbeat IPC: 0.999516 cumulative IPC: 0.914062 (Simulation time: 0 hr 27 min 57 sec) 
Heartbeat CPU 1 instructions: 80000002 cycles: 63685260 heartbeat IPC: 0.673012 cumulative IPC: 0.67408 (Simulation time: 0 hr 28 min 52 sec) 
Heartbeat CPU 0 instructions: 100000000 cycles: 70456077 heartbeat IPC: 1.00391 cumulative IPC: 0.931516 (Simulation time: 0 hr 30 min 48 sec) 
Heartbeat CPU 3 instructions: 80000001 cycles: 74775009 heartbeat IPC: 0.252329 cumulative IPC: 0.253462 (Simulation time: 0 hr 31 min 58 sec) 
Heartbeat CPU 1 instructions: 90000000 cycles: 78409918 heartbeat IPC: 0.679133 cumulative IPC: 0.675336 (Simulation time: 0 hr 32 min 59 sec) 
Heartbeat CPU 0 instructions: 110000000 cycles: 80878207 heartbeat IPC: 0.959497 cumulative IPC: 0.936242 (Simulation time: 0 hr 33 min 39 sec) 
Heartbeat CPU 0 instructions: 120000003 cycles: 91412017 heartbeat IPC: 0.949324 cumulative IPC: 0.93815 (Simulation time: 0 hr 36 min 39 sec) 
Heartbeat CPU 1 instructions: 100000002 cycles: 93312282 heartbeat IPC: 0.671035 cumulative IPC: 0.674472 (Simulation time: 0 hr 37 min 8 sec) 
Heartbeat CPU 2 instructions: 70000000 cycles: 100675816 heartbeat IPC: 0.153045 cumulative IPC: 0.152885 (Simulation time: 0 hr 39 min 12 sec) 
Heartbeat CPU 0 instructions: 130000002 cycles: 102482552 heartbeat IPC: 0.903299 cumulative IPC: 0.933519 (Simulation time: 0 hr 39 min 44 sec) 
Heartbeat CPU 1 instructions: 110000000 cycles: 108032935 heartbeat IPC: 0.679318 cumulative IPC: 0.675274 (Simulation time: 0 hr 41 min 18 sec) 
Heartbeat CPU 0 instructions: 140000000 cycles: 112942391 heartbeat IPC: 0.956037 cumulative IPC: 0.936031 (Simulation time: 0 hr 42 min 37 sec) 
Heartbeat CPU 3 instructions: 90000000 cycles: 115084931 heartbeat IPC: 0.248078 cumulative IPC: 0.251199 (Simulation time: 0 hr 43 min 14 sec) 
Heartbeat CPU 1 instructions: 120000002 cycles: 122697695 heartbeat IPC: 0.681907 cumulative IPC: 0.676214 (Simulation time: 0 hr 45 min 24 sec) 
Heartbeat CPU 0 instructions: 150000000 cycles: 123027131 heartbeat IPC: 0.991597 cumulative IPC: 0.941427 (Simulation time: 0 hr 45 min 29 sec) 
Heartbeat CPU 0 instructions: 160000001 cycles: 133135298 heartbeat IPC: 0.989299 cumulative IPC: 0.945673 (Simulation time: 0 hr 48 min 21 sec) 
Heartbeat CPU 1 instructions: 130000000 cycles: 137305553 heartbeat IPC: 0.684563 cumulative IPC: 0.677247 (Simulation time: 0 hr 49 min 32 sec) 
Heartbeat CPU 0 instructions: 170000000 cycles: 143341574 heartbeat IPC: 0.979789 cumulative IPC: 0.948478 (Simulation time: 0 hr 51 min 17 sec) 
Heartbeat CPU 1 instructions: 140000000 cycles: 151545699 heartbeat IPC: 0.70224 cumulative IPC: 0.679935 (Simulation time: 0 hr 53 min 32 sec) 
Heartbeat CPU 0 instructions: 180000000 cycles: 153779288 heartbeat IPC: 0.958064 cumulative IPC: 0.949221 (Simulation time: 0 hr 54 min 11 sec) 
Heartbeat CPU 3 instructions: 100000000 cycles: 155350504 heartbeat IPC: 0.248351 cumulative IPC: 0.250357 (Simulation time: 0 hr 54 min 38 sec) 
Heartbeat CPU 0 instructions: 190000000 cycles: 164491820 heartbeat IPC: 0.933486 cumulative IPC: 0.948061 (Simulation time: 0 hr 57 min 2 sec) 
Heartbeat CPU 2 instructions: 80000000 cycles: 166080310 heartbeat IPC: 0.152895 cumulative IPC: 0.15289 (Simulation time: 0 hr 57 min 30 sec) 
Heartbeat CPU 1 instructions: 150000001 cycles: 166161246 heartbeat IPC: 0.684203 cumulative IPC: 0.68036 (Simulation time: 0 hr 57 min 31 sec) 
Heartbeat CPU 0 instructions: 200000003 cycles: 175921933 heartbeat IPC: 0.874882 cumulative IPC: 0.942725 (Simulation time: 1 hr 0 min 0 sec) 
Heartbeat CPU 1 instructions: 160000002 cycles: 180697131 heartbeat IPC: 0.687953 cumulative IPC: 0.681043 (Simulation time: 1 hr 1 min 25 sec) 
Heartbeat CPU 0 instructions: 210000001 cycles: 185969784 heartbeat IPC: 0.995237 cumulative IPC: 0.945888 (Simulation time: 1 hr 2 min 44 sec) 
Heartbeat CPU 1 instructions: 170000000 cycles: 195203322 heartbeat IPC: 0.689361 cumulative IPC: 0.681729 (Simulation time: 1 hr 5 min 12 sec) 
Heartbeat CPU 3 instructions: 110000000 cycles: 196029574 heartbeat IPC: 0.245827 cumulative IPC: 0.249315 (Simulation time: 1 hr 5 min 26 sec) 
Heartbeat CPU 0 instructions: 220000000 cycles: 196173664 heartbeat IPC: 0.980019 cumulative IPC: 0.947856 (Simulation time: 1 hr 5 min 29 sec) 
Heartbeat CPU 0 instructions: 230000000 cycles: 206739351 heartbeat IPC: 0.94646 cumulative IPC: 0.947777 (Simulation time: 1 hr 8 min 16 sec) 
Heartbeat CPU 1 instructions: 180000000 cycles: 209859637 heartbeat IPC: 0.6823 cumulative IPC: 0.681772 (Simulation time: 1 hr 9 min 5 sec) 
Heartbeat CPU 0 instructions: 240000000 cycles: 217096810 heartbeat IPC: 0.965488 cumulative IPC: 0.948704 (Simulation time: 1 hr 10 min 51 sec) 
Heartbeat CPU 1 instructions: 190000000 cycles: 224943214 heartbeat IPC: 0.662973 cumulative IPC: 0.680394 (Simulation time: 1 hr 12 min 42 sec) 
Heartbeat CPU 0 instructions: 250000001 cycles: 227626232 heartbeat IPC: 0.94972 cumulative IPC: 0.948755 (Simulation time: 1 hr 13 min 22 sec) 
Finished CPU 0 instructions: 200000002 cycles: 210965605 cumulative IPC: 0.948022 (Simulation time: 1 hr 13 min 56 sec) 
Heartbeat CPU 2 instructions: 90000000 cycles: 232209925 heartbeat IPC: 0.151218 cumulative IPC: 0.152371 (Simulation time: 1 hr 14 min 26 sec) 
Heartbeat CPU 3 instructions: 120000000 cycles: 237052808 heartbeat IPC: 0.243764 cumulative IPC: 0.24827 (Simulation time: 1 hr 15 min 38 sec) 
Heartbeat CPU 0 instructions: 260000003 cycles: 238759616 heartbeat IPC: 0.8982 cumulative IPC: 0.946192 (Simulation time: 1 hr 16 min 2 sec) 
Heartbeat CPU 1 instructions: 200000000 cycles: 244209165 heartbeat IPC: 0.51905 cumulative IPC: 0.666581 (Simulation time: 1 hr 17 min 19 sec) 
Heartbeat CPU 0 instructions: 270000000 cycles: 249364414 heartbeat IPC: 0.942969 cumulative IPC: 0.946044 (Simulation time: 1 hr 18 min 34 sec) 
Heartbeat CPU 0 instructions: 280000001 cycles: 260241021 heartbeat IPC: 0.919404 cumulative IPC: 0.944842 (Simulation time: 1 hr 21 min 0 sec) 
Heartbeat CPU 1 instructions: 210000000 cycles: 263590549 heartbeat IPC: 0.515959 cumulative IPC: 0.654637 (Simulation time: 1 hr 21 min 48 sec) 
Heartbeat CPU 0 instructions: 290000000 cycles: 272093451 heartbeat IPC: 0.843709 cumulative IPC: 0.940102 (Simulation time: 1 hr 23 min 42 sec) 
Heartbeat CPU 2 instructions: 100000003 cycles: 277021847 heartbeat IPC: 0.223155 cumulative IPC: 0.164673 (Simulation time: 1 hr 25 min 15 sec) 
Heartbeat CPU 3 instructions: 130000001 cycles: 278106606 heartbeat IPC: 0.243583 cumulative IPC: 0.247527 (Simulation time: 1 hr 25 min 37 sec) 
Heartbeat CPU 0 instructions: 300000002 cycles: 281303153 heartbeat IPC: 1.08581 cumulative IPC: 0.945222 (Simulation time: 1 hr 26 min 41 sec) 
Heartbeat CPU 1 instructions: 220000000 cycles: 281913979 heartbeat IPC: 0.545749 cumulative IPC: 0.647043 (Simulation time: 1 hr 26 min 54 sec) 
Heartbeat CPU 2 instructions: 110000000 cycles: 287874157 heartbeat IPC: 0.921463 cumulative IPC: 0.195239 (Simulation time: 1 hr 28 min 50 sec) 
Heartbeat CPU 0 instructions: 310000000 cycles: 290454798 heartbeat IPC: 1.0927 cumulative IPC: 0.950197 (Simulation time: 1 hr 29 min 38 sec) 
Heartbeat CPU 2 instructions: 120000000 cycles: 298703418 heartbeat IPC: 0.923424 cumulative IPC: 0.22345 (Simulation time: 1 hr 32 min 17 sec) 
Heartbeat CPU 1 instructions: 230000001 cycles: 299680658 heartbeat IPC: 0.562851 cumulative IPC: 0.64171 (Simulation time: 1 hr 32 min 35 sec) 
Heartbeat CPU 0 instructions: 320000000 cycles: 299695187 heartbeat IPC: 1.08221 cumulative IPC: 0.954545 (Simulation time: 1 hr 32 min 35 sec) 
Heartbeat CPU 0 instructions: 330000000 cycles: 308744601 heartbeat IPC: 1.10504 cumulative IPC: 0.959249 (Simulation time: 1 hr 35 min 31 sec) 
Heartbeat CPU 2 instructions: 130000001 cycles: 309213957 heartbeat IPC: 0.951426 cumulative IPC: 0.249831 (Simulation time: 1 hr 35 min 42 sec) 
Heartbeat CPU 3 instructions: 140000001 cycles: 311164493 heartbeat IPC: 0.3025 cumulative IPC: 0.253751 (Simulation time: 1 hr 36 min 23 sec) 
Heartbeat CPU 1 instructions: 240000000 cycles: 317046079 heartbeat IPC: 0.575857 cumulative IPC: 0.637871 (Simulation time: 1 hr 38 min 21 sec) 
Heartbeat CPU 0 instructions: 340000001 cycles: 317829182 heartbeat IPC: 1.10077 cumulative IPC: 0.963554 (Simulation time: 1 hr 38 min 38 sec) 
Heartbeat CPU 2 instructions: 140000001 cycles: 319301534 heartbeat IPC: 0.991318 cumulative IPC: 0.274754 (Simulation time: 1 hr 39 min 10 sec) 
Heartbeat CPU 0 instructions: 350000000 cycles: 327180518 heartbeat IPC: 1.06937 cumulative IPC: 0.966766 (Simulation time: 1 hr 41 min 51 sec) 
Heartbeat CPU 2 instructions: 150000000 cycles: 329553883 heartbeat IPC: 0.975386 cumulative IPC: 0.297897 (Simulation time: 1 hr 42 min 40 sec) 
*** Reached end of trace for Core: 1 Repeating trace: ./traces/ligra/ligra_BellmanFord.com-lj.ungraph.gcc_6.3.0_O3.drop_7500M.length_250M.champsimtrace.xz
Heartbeat CPU 1 instructions: 250000001 cycles: 334726938 heartbeat IPC: 0.565583 cumulative IPC: 0.63382 (Simulation time: 1 hr 44 min 28 sec) 
Finished CPU 1 instructions: 200000000 cycles: 315548209 cumulative IPC: 0.633818 (Simulation time: 1 hr 44 min 28 sec) 
Heartbeat CPU 0 instructions: 360000000 cycles: 336773646 heartbeat IPC: 1.04241 cumulative IPC: 0.969051 (Simulation time: 1 hr 45 min 16 sec) 
Heartbeat CPU 2 instructions: 160000002 cycles: 338975777 heartbeat IPC: 1.06136 cumulative IPC: 0.320391 (Simulation time: 1 hr 46 min 8 sec) 
Heartbeat CPU 3 instructions: 150000002 cycles: 343809810 heartbeat IPC: 0.306323 cumulative IPC: 0.259037 (Simulation time: 1 hr 47 min 58 sec) 
Heartbeat CPU 0 instructions: 370000001 cycles: 345591811 heartbeat IPC: 1.13402 cumulative IPC: 0.973508 (Simulation time: 1 hr 48 min 32 sec) 
Heartbeat CPU 1 instructions: 260000003 cycles: 348129425 heartbeat IPC: 0.74613 cumulative IPC: 0.638396 (Simulation time: 1 hr 49 min 21 sec) 
Heartbeat CPU 2 instructions: 170000000 cycles: 349105859 heartbeat IPC: 0.987159 cumulative IPC: 0.340863 (Simulation time: 1 hr 49 min 40 sec) 
Heartbeat CPU 0 instructions: 380000003 cycles: 354357908 heartbeat IPC: 1.14076 cumulative IPC: 0.977882 (Simulation time: 1 hr 51 min 29 sec) 
Heartbeat CPU 2 instructions: 180000001 cycles: 359328250 heartbeat IPC: 0.978245 cumulative IPC: 0.360018 (Simulation time: 1 hr 53 min 27 sec) 
Heartbeat CPU 1 instructions: 270000002 cycles: 361384050 heartbeat IPC: 0.754454 cumulative IPC: 0.642892 (Simulation time: 1 hr 54 min 16 sec) 
Heartbeat CPU 0 instructions: 390000000 cycles: 363150576 heartbeat IPC: 1.13731 cumulative IPC: 0.981957 (Simulation time: 1 hr 54 min 58 sec) 
Heartbeat CPU 2 instructions: 190000000 cycles: 369443680 heartbeat IPC: 0.988589 cumulative IPC: 0.378171 (Simulation time: 1 hr 57 min 25 sec) 
Heartbeat CPU 0 instructions: 400000000 cycles: 372055924 heartbeat IPC: 1.12292 cumulative IPC: 0.985515 (Simulation time: 1 hr 58 min 28 sec) 
Heartbeat CPU 3 instructions: 160000000 cycles: 373732712 heartbeat IPC: 0.334192 cumulative IPC: 0.26538 (Simulation time: 1 hr 59 min 5 sec) 
Heartbeat CPU 1 instructions: 280000000 cycles: 374581499 heartbeat IPC: 0.757722 cumulative IPC: 0.647156 (Simulation time: 1 hr 59 min 24 sec) 
Heartbeat CPU 2 instructions: 200000000 cycles: 379521849 heartbeat IPC: 0.992244 cumulative IPC: 0.395346 (Simulation time: 2 hr 1 min 18 sec) 
Heartbeat CPU 0 instructions: 410000001 cycles: 380907082 heartbeat IPC: 1.1298 cumulative IPC: 0.989045 (Simulation time: 2 hr 1 min 47 sec) 
Heartbeat CPU 1 instructions: 290000000 cycles: 387734682 heartbeat IPC: 0.760272 cumulative IPC: 0.651193 (Simulation time: 2 hr 4 min 23 sec) 
Heartbeat CPU 2 instructions: 210000001 cycles: 389698909 heartbeat IPC: 0.982602 cumulative IPC: 0.411476 (Simulation time: 2 hr 5 min 2 sec) 
Heartbeat CPU 0 instructions: 420000002 cycles: 389849697 heartbeat IPC: 1.11824 cumulative IPC: 0.992162 (Simulation time: 2 hr 5 min 5 sec) 
Heartbeat CPU 0 instructions: 430000002 cycles: 398727817 heartbeat IPC: 1.12636 cumulative IPC: 0.995301 (Simulation time: 2 hr 8 min 24 sec) 
Heartbeat CPU 2 instructions: 220000000 cycles: 399736039 heartbeat IPC: 0.996301 cumulative IPC: 0.426901 (Simulation time: 2 hr 8 min 44 sec) 
Heartbeat CPU 1 instructions: 300000001 cycles: 400772795 heartbeat IPC: 0.766982 cumulative IPC: 0.655149 (Simulation time: 2 hr 9 min 5 sec) 
Heartbeat CPU 3 instructions: 170000000 cycles: 403465194 heartbeat IPC: 0.336332 cumulative IPC: 0.27087 (Simulation time: 2 hr 9 min 58 sec) 
Heartbeat CPU 0 instructions: 440000000 cycles: 407883795 heartbeat IPC: 1.09218 cumulative IPC: 0.997583 (Simulation time: 2 hr 11 min 26 sec) 
Heartbeat CPU 2 instructions: 230000002 cycles: 409670693 heartbeat IPC: 1.00658 cumulative IPC: 0.441648 (Simulation time: 2 hr 12 min 9 sec) 
Heartbeat CPU 1 instructions: 310000002 cycles: 413066850 heartbeat IPC: 0.813401 cumulative IPC: 0.660088 (Simulation time: 2 hr 13 min 31 sec) 
Heartbeat CPU 0 instructions: 450000003 cycles: 416644604 heartbeat IPC: 1.14145 cumulative IPC: 1.00075 (Simulation time: 2 hr 14 min 54 sec) 
Heartbeat CPU 2 instructions: 240000003 cycles: 419653445 heartbeat IPC: 1.00173 cumulative IPC: 0.45561 (Simulation time: 2 hr 16 min 7 sec) 
Heartbeat CPU 0 instructions: 460000000 cycles: 425462735 heartbeat IPC: 1.13403 cumulative IPC: 1.00365 (Simulation time: 2 hr 18 min 29 sec) 
Heartbeat CPU 1 instructions: 320000000 cycles: 425523381 heartbeat IPC: 0.802792 cumulative IPC: 0.664463 (Simulation time: 2 hr 18 min 30 sec) 
*** Reached end of trace for Core: 2 Repeating trace: ./traces/ligra/ligra_Components.com-lj.ungraph.gcc_6.3.0_O3.drop_6250M.length_250M.champsimtrace.xz
Heartbeat CPU 2 instructions: 250000001 cycles: 429480356 heartbeat IPC: 1.01761 cumulative IPC: 0.46907 (Simulation time: 2 hr 20 min 6 sec) 
Heartbeat CPU 3 instructions: 180000001 cycles: 433662172 heartbeat IPC: 0.331159 cumulative IPC: 0.275262 (Simulation time: 2 hr 21 min 16 sec) 
Heartbeat CPU 0 instructions: 470000002 cycles: 434845086 heartbeat IPC: 1.06583 cumulative IPC: 1.00505 (Simulation time: 2 hr 21 min 32 sec) 
Heartbeat CPU 1 instructions: 330000000 cycles: 440785845 heartbeat IPC: 0.655202 cumulative IPC: 0.664128 (Simulation time: 2 hr 23 min 7 sec) 
Heartbeat CPU 0 instructions: 480000000 cycles: 444965137 heartbeat IPC: 0.988137 cumulative IPC: 1.00465 (Simulation time: 2 hr 24 min 18 sec) 
Heartbeat CPU 0 instructions: 490000000 cycles: 455042863 heartbeat IPC: 0.992287 cumulative IPC: 1.00436 (Simulation time: 2 hr 27 min 5 sec) 
Heartbeat CPU 1 instructions: 340000001 cycles: 457491266 heartbeat IPC: 0.598608 cumulative IPC: 0.661631 (Simulation time: 2 hr 27 min 45 sec) 
Heartbeat CPU 0 instructions: 500000000 cycles: 465416600 heartbeat IPC: 0.963973 cumulative IPC: 1.00342 (Simulation time: 2 hr 29 min 53 sec) 
Heartbeat CPU 1 instructions: 350000003 cycles: 474420227 heartbeat IPC: 0.590704 cumulative IPC: 0.658993 (Simulation time: 2 hr 32 min 17 sec) 
Heartbeat CPU 0 instructions: 510000003 cycles: 476096510 heartbeat IPC: 0.936338 cumulative IPC: 1.00186 (Simulation time: 2 hr 32 min 45 sec) 
Heartbeat CPU 3 instructions: 190000001 cycles: 477349733 heartbeat IPC: 0.228898 cumulative IPC: 0.270841 (Simulation time: 2 hr 33 min 4 sec) 
Finished CPU 2 instructions: 200000001 cycles: 459392299 cumulative IPC: 0.435358 (Simulation time: 2 hr 33 min 22 sec) 
Heartbeat CPU 0 instructions: 520000001 cycles: 486096488 heartbeat IPC: 1 cumulative IPC: 1.00182 (Simulation time: 2 hr 35 min 22 sec) 
Heartbeat CPU 1 instructions: 360000002 cycles: 490694434 heartbeat IPC: 0.614469 cumulative IPC: 0.657456 (Simulation time: 2 hr 36 min 31 sec) 
Heartbeat CPU 2 instructions: 260000000 cycles: 494429705 heartbeat IPC: 0.153966 cumulative IPC: 0.426007 (Simulation time: 2 hr 37 min 35 sec) 
Heartbeat CPU 0 instructions: 530000000 cycles: 496070763 heartbeat IPC: 1.00258 cumulative IPC: 1.00183 (Simulation time: 2 hr 38 min 3 sec) 
Heartbeat CPU 0 instructions: 540000000 cycles: 506295117 heartbeat IPC: 0.978057 cumulative IPC: 1.00133 (Simulation time: 2 hr 40 min 45 sec) 
Heartbeat CPU 1 instructions: 370000000 cycles: 506470741 heartbeat IPC: 0.633862 cumulative IPC: 0.656692 (Simulation time: 2 hr 40 min 48 sec) 
Heartbeat CPU 0 instructions: 550000000 cycles: 516371333 heartbeat IPC: 0.992436 cumulative IPC: 1.00115 (Simulation time: 2 hr 43 min 32 sec) 
Heartbeat CPU 3 instructions: 200000000 cycles: 520556717 heartbeat IPC: 0.231444 cumulative IPC: 0.267446 (Simulation time: 2 hr 44 min 43 sec) 
Heartbeat CPU 1 instructions: 380000001 cycles: 523088194 heartbeat IPC: 0.601777 cumulative IPC: 0.654881 (Simulation time: 2 hr 45 min 26 sec) 
Heartbeat CPU 0 instructions: 560000000 cycles: 526405188 heartbeat IPC: 0.996626 cumulative IPC: 1.00106 (Simulation time: 2 hr 46 min 23 sec) 
Heartbeat CPU 0 instructions: 570000002 cycles: 536452444 heartbeat IPC: 0.995297 cumulative IPC: 1.00095 (Simulation time: 2 hr 49 min 13 sec) 
Heartbeat CPU 1 instructions: 390000001 cycles: 539331892 heartbeat IPC: 0.615623 cumulative IPC: 0.653655 (Simulation time: 2 hr 49 min 56 sec) 
Heartbeat CPU 0 instructions: 580000001 cycles: 546846481 heartbeat IPC: 0.96209 cumulative IPC: 1.00019 (Simulation time: 2 hr 51 min 51 sec) 
Heartbeat CPU 1 instructions: 400000000 cycles: 555992531 heartbeat IPC: 0.600217 cumulative IPC: 0.651997 (Simulation time: 2 hr 54 min 14 sec) 
Heartbeat CPU 0 instructions: 590000000 cycles: 557391093 heartbeat IPC: 0.948352 cumulative IPC: 0.99917 (Simulation time: 2 hr 54 min 36 sec) 
Heartbeat CPU 2 instructions: 270000000 cycles: 558747023 heartbeat IPC: 0.155479 cumulative IPC: 0.393759 (Simulation time: 2 hr 54 min 57 sec) 
Heartbeat CPU 3 instructions: 210000000 cycles: 563753737 heartbeat IPC: 0.231497 cumulative IPC: 0.264595 (Simulation time: 2 hr 56 min 12 sec) 
Heartbeat CPU 0 instructions: 600000000 cycles: 567811927 heartbeat IPC: 0.959616 cumulative IPC: 0.998419 (Simulation time: 2 hr 57 min 14 sec) 
Heartbeat CPU 1 instructions: 410000000 cycles: 572271741 heartbeat IPC: 0.61428 cumulative IPC: 0.650887 (Simulation time: 2 hr 58 min 29 sec) 
Heartbeat CPU 0 instructions: 610000001 cycles: 577793806 heartbeat IPC: 1.00182 cumulative IPC: 0.99848 (Simulation time: 3 hr 0 min 5 sec) 
Heartbeat CPU 0 instructions: 620000002 cycles: 587924347 heartbeat IPC: 0.987114 cumulative IPC: 0.998277 (Simulation time: 3 hr 2 min 53 sec) 
Heartbeat CPU 1 instructions: 420000001 cycles: 588168942 heartbeat IPC: 0.629042 cumulative IPC: 0.650276 (Simulation time: 3 hr 2 min 57 sec) 
Heartbeat CPU 0 instructions: 630000000 cycles: 598107040 heartbeat IPC: 0.982058 cumulative IPC: 0.997992 (Simulation time: 3 hr 5 min 43 sec) 
Heartbeat CPU 1 instructions: 430000001 cycles: 604595604 heartbeat IPC: 0.608766 cumulative IPC: 0.649112 (Simulation time: 3 hr 7 min 26 sec) 
Heartbeat CPU 3 instructions: 220000000 cycles: 608151823 heartbeat IPC: 0.225235 cumulative IPC: 0.261627 (Simulation time: 3 hr 8 min 23 sec) 
Heartbeat CPU 0 instructions: 640000000 cycles: 608210591 heartbeat IPC: 0.989751 cumulative IPC: 0.997851 (Simulation time: 3 hr 8 min 24 sec) 
Heartbeat CPU 0 instructions: 650000001 cycles: 618500084 heartbeat IPC: 0.971865 cumulative IPC: 0.997404 (Simulation time: 3 hr 11 min 22 sec) 
Heartbeat CPU 1 instructions: 440000000 cycles: 621336992 heartbeat IPC: 0.597322 cumulative IPC: 0.647672 (Simulation time: 3 hr 11 min 57 sec) 
Heartbeat CPU 2 instructions: 280000000 cycles: 623811439 heartbeat IPC: 0.153694 cumulative IPC: 0.367926 (Simulation time: 3 hr 12 min 27 sec) 
Heartbeat CPU 0 instructions: 660000000 cycles: 629568506 heartbeat IPC: 0.903471 cumulative IPC: 0.995701 (Simulation time: 3 hr 13 min 48 sec) 
Heartbeat CPU 0 instructions: 670000003 cycles: 640149634 heartbeat IPC: 0.945079 cumulative IPC: 0.994838 (Simulation time: 3 hr 16 min 29 sec) 
Heartbeat CPU 1 instructions: 450000001 cycles: 641792166 heartbeat IPC: 0.488874 cumulative IPC: 0.642455 (Simulation time: 3 hr 16 min 54 sec) 
Heartbeat CPU 0 instructions: 680000001 cycles: 650411357 heartbeat IPC: 0.974495 cumulative IPC: 0.994508 (Simulation time: 3 hr 19 min 6 sec) 
Heartbeat CPU 3 instructions: 230000000 cycles: 657391150 heartbeat IPC: 0.20309 cumulative IPC: 0.257111 (Simulation time: 3 hr 20 min 53 sec) 
Heartbeat CPU 0 instructions: 690000002 cycles: 661028165 heartbeat IPC: 0.941903 cumulative IPC: 0.993638 (Simulation time: 3 hr 21 min 47 sec) 
Heartbeat CPU 1 instructions: 460000001 cycles: 661890217 heartbeat IPC: 0.497561 cumulative IPC: 0.637924 (Simulation time: 3 hr 22 min 0 sec) 
Heartbeat CPU 0 instructions: 700000001 cycles: 671813348 heartbeat IPC: 0.927198 cumulative IPC: 0.99254 (Simulation time: 3 hr 24 min 10 sec) 
Heartbeat CPU 1 instructions: 470000000 cycles: 682143651 heartbeat IPC: 0.493743 cumulative IPC: 0.633519 (Simulation time: 3 hr 26 min 27 sec) 
Heartbeat CPU 0 instructions: 710000000 cycles: 682400343 heartbeat IPC: 0.944555 cumulative IPC: 0.991774 (Simulation time: 3 hr 26 min 29 sec) 
Heartbeat CPU 0 instructions: 720000001 cycles: 693176428 heartbeat IPC: 0.927981 cumulative IPC: 0.990754 (Simulation time: 3 hr 28 min 59 sec) 
Heartbeat CPU 2 instructions: 290000000 cycles: 697401328 heartbeat IPC: 0.135888 cumulative IPC: 0.342749 (Simulation time: 3 hr 29 min 51 sec) 
Heartbeat CPU 1 instructions: 480000002 cycles: 701742932 heartbeat IPC: 0.510223 cumulative IPC: 0.629979 (Simulation time: 3 hr 30 min 52 sec) 
Heartbeat CPU 0 instructions: 730000001 cycles: 704188176 heartbeat IPC: 0.908121 cumulative IPC: 0.989425 (Simulation time: 3 hr 31 min 28 sec) 
Heartbeat CPU 3 instructions: 240000002 cycles: 710373515 heartbeat IPC: 0.188742 cumulative IPC: 0.25187 (Simulation time: 3 hr 32 min 55 sec) 
Heartbeat CPU 0 instructions: 740000000 cycles: 714724716 heartbeat IPC: 0.949078 cumulative IPC: 0.988814 (Simulation time: 3 hr 33 min 55 sec) 
Heartbeat CPU 1 instructions: 490000000 cycles: 721383780 heartbeat IPC: 0.509143 cumulative IPC: 0.626599 (Simulation time: 3 hr 35 min 24 sec) 
Heartbeat CPU 0 instructions: 750000002 cycles: 725573870 heartbeat IPC: 0.921731 cumulative IPC: 0.987784 (Simulation time: 3 hr 36 min 23 sec) 
Heartbeat CPU 0 instructions: 760000000 cycles: 736361059 heartbeat IPC: 0.927025 cumulative IPC: 0.98687 (Simulation time: 3 hr 38 min 58 sec) 
*** Reached end of trace for Core: 1 Repeating trace: ./traces/ligra/ligra_BellmanFord.com-lj.ungraph.gcc_6.3.0_O3.drop_7500M.length_250M.champsimtrace.xz
Heartbeat CPU 1 instructions: 500000002 cycles: 740865459 heartbeat IPC: 0.513303 cumulative IPC: 0.623541 (Simulation time: 3 hr 40 min 4 sec) 
Heartbeat CPU 0 instructions: 770000000 cycles: 747010564 heartbeat IPC: 0.939011 cumulative IPC: 0.98617 (Simulation time: 3 hr 41 min 34 sec) 
Heartbeat CPU 0 instructions: 780000001 cycles: 756789455 heartbeat IPC: 1.02261 cumulative IPC: 0.986653 (Simulation time: 3 hr 44 min 8 sec) 
Heartbeat CPU 1 instructions: 510000000 cycles: 759055881 heartbeat IPC: 0.54974 cumulative IPC: 0.621726 (Simulation time: 3 hr 44 min 48 sec) 
Heartbeat CPU 3 instructions: 250000001 cycles: 759986183 heartbeat IPC: 0.201561 cumulative IPC: 0.248501 (Simulation time: 3 hr 45 min 4 sec) 
Heartbeat CPU 0 instructions: 790000002 cycles: 766726680 heartbeat IPC: 1.00632 cumulative IPC: 0.986914 (Simulation time: 3 hr 46 min 50 sec) 
Heartbeat CPU 2 instructions: 300000000 cycles: 767629524 heartbeat IPC: 0.142393 cumulative IPC: 0.323949 (Simulation time: 3 hr 47 min 5 sec) 
Heartbeat CPU 0 instructions: 800000002 cycles: 776622651 heartbeat IPC: 1.01051 cumulative IPC: 0.987223 (Simulation time: 3 hr 49 min 42 sec) 
Heartbeat CPU 1 instructions: 520000000 cycles: 776810261 heartbeat IPC: 0.563241 cumulative IPC: 0.620355 (Simulation time: 3 hr 49 min 46 sec) 
Heartbeat CPU 0 instructions: 810000001 cycles: 787529410 heartbeat IPC: 0.916863 cumulative IPC: 0.986224 (Simulation time: 3 hr 52 min 42 sec) 
Heartbeat CPU 1 instructions: 530000001 cycles: 795260032 heartbeat IPC: 0.542012 cumulative IPC: 0.618493 (Simulation time: 3 hr 54 min 55 sec) 
Heartbeat CPU 0 instructions: 820000000 cycles: 797444184 heartbeat IPC: 1.0086 cumulative IPC: 0.986509 (Simulation time: 3 hr 55 min 32 sec) 
Heartbeat CPU 3 instructions: 260000003 cycles: 804972244 heartbeat IPC: 0.222291 cumulative IPC: 0.247001 (Simulation time: 3 hr 57 min 39 sec) 
Heartbeat CPU 0 instructions: 830000000 cycles: 807489433 heartbeat IPC: 0.995495 cumulative IPC: 0.986623 (Simulation time: 3 hr 58 min 21 sec) 
Heartbeat CPU 1 instructions: 540000001 cycles: 814064580 heartbeat IPC: 0.531786 cumulative IPC: 0.616442 (Simulation time: 4 hr 0 min 18 sec) 
Heartbeat CPU 0 instructions: 840000001 cycles: 817410469 heartbeat IPC: 1.00796 cumulative IPC: 0.986889 (Simulation time: 4 hr 1 min 16 sec) 
Heartbeat CPU 0 instructions: 850000000 cycles: 827381719 heartbeat IPC: 1.00288 cumulative IPC: 0.987086 (Simulation time: 4 hr 3 min 55 sec) 
Finished CPU 3 instructions: 200000001 cycles: 812196088 cumulative IPC: 0.246246 (Simulation time: 4 hr 5 min 3 sec) 

ChampSim completed all CPUs

Total Simulation Statistics (not including warmup)

CPU 0 cumulative IPC: 0.987169 instructions: 801774682 cycles: 812196087
ITLB TOTAL     ACCESS:  113790437  HIT:  113790437  MISS:          0  HIT %:        100  MISS %:          0   MPKI: 0
ITLB LOAD      ACCESS:          0  HIT:          0  MISS:          0  HIT %:       -nan  MISS %:       -nan   MPKI: 0
ITLB RFO       ACCESS:          0  HIT:          0  MISS:          0  HIT %:       -nan  MISS %:       -nan   MPKI: 0
ITLB PREFETCH  ACCESS:          0  HIT:          0  MISS:          0  HIT %:       -nan  MISS %:       -nan   MPKI: 0
ITLB WRITEBACK ACCESS:          0  HIT:          0  MISS:          0  HIT %:       -nan  MISS %:       -nan   MPKI: 0
DTLB TOTAL     ACCESS:  226913655  HIT:  196580160  MISS:   30333495  HIT %:    86.6321  MISS %:    13.3679   MPKI: 37.8329
DTLB LOAD      ACCESS:          0  HIT:          0  MISS:          0  HIT %:       -nan  MISS %:       -nan   MPKI: 0
DTLB RFO       ACCESS:          0  HIT:          0  MISS:          0  HIT %:       -nan  MISS %:       -nan   MPKI: 0
DTLB PREFETCH  ACCESS:          0  HIT:          0  MISS:          0  HIT %:       -nan  MISS %:       -nan   MPKI: 0
DTLB WRITEBACK ACCESS:          0  HIT:          0  MISS:          0  HIT %:       -nan  MISS %:       -nan   MPKI: 0
STLB TOTAL     ACCESS:   31853800  HIT:   31820366  MISS:      33434  HIT %:     99.895  MISS %:   0.104961   MPKI: 0.0417
STLB LOAD      ACCESS:          0  HIT:          0  MISS:          0  HIT %:       -nan  MISS %:       -nan   MPKI: 0
STLB RFO       ACCESS:          0  HIT:          0  MISS:          0  HIT %:       -nan  MISS %:       -nan   MPKI: 0
STLB PREFETCH  ACCESS:          0  HIT:          0  MISS:          0  HIT %:       -nan  MISS %:       -nan   MPKI: 0
STLB WRITEBACK ACCESS:          0  HIT:          0  MISS:          0  HIT %:       -nan  MISS %:       -nan   MPKI: 0
L1D TOTAL     ACCESS:  314674038  HIT:  254326168  MISS:   60347870  HIT %:    80.8221  MISS %:    19.1779   MPKI: 75.2679
L1D LOAD      ACCESS:  249616480  HIT:  195676861  MISS:   53939619  HIT %:     78.391  MISS %:     21.609   MPKI: 67.2753
L1D RFO       ACCESS:   63235708  HIT:   58472396  MISS:    4763312  HIT %:    92.4674  MISS %:    7.53263   MPKI: 5.94096
L1D PREFETCH  ACCESS:    1821850  HIT:     176911  MISS:    1644939  HIT %:    9.71051  MISS %:    90.2895   MPKI: 2.05162
L1D WRITEBACK ACCESS:          0  HIT:          0  MISS:          0  HIT %:       -nan  MISS %:       -nan   MPKI: 0
L1I TOTAL     ACCESS:  126750059  HIT:  103560984  MISS:   23189075  HIT %:    81.7049  MISS %:    18.2951   MPKI: 28.9222
L1I LOAD      ACCESS:  126750059  HIT:  103560984  MISS:   23189075  HIT %:    81.7049  MISS %:    18.2951   MPKI: 28.9222
L1I RFO       ACCESS:          0  HIT:          0  MISS:          0  HIT %:       -nan  MISS %:       -nan   MPKI: 0
L1I PREFETCH  ACCESS:          0  HIT:          0  MISS:          0  HIT %:       -nan  MISS %:       -nan   MPKI: 0
L1I WRITEBACK ACCESS:          0  HIT:          0  MISS:          0  HIT %:       -nan  MISS %:       -nan   MPKI: 0
L2C TOTAL     ACCESS:   88861585  HIT:   84432568  MISS:    4429017  HIT %:    95.0158  MISS %:    4.98418   MPKI: 5.52402
L2C LOAD      ACCESS:   77121082  HIT:   74818765  MISS:    2302317  HIT %:    97.0147  MISS %:    2.98533   MPKI: 2.87153
L2C RFO       ACCESS:    4705602  HIT:    4236223  MISS:     469379  HIT %:    90.0251  MISS %:     9.9749   MPKI: 0.585425
L2C PREFETCH  ACCESS:    1844725  HIT:     246645  MISS:    1598080  HIT %:    13.3703  MISS %:    86.6297   MPKI: 1.99318
L2C WRITEBACK ACCESS:    5139544  HIT:    5123966  MISS:      15578  HIT %:    99.6969  MISS %:   0.303101   MPKI: 0.0194294
PSCL5 TOTAL     ACCESS:      33434  HIT:      33434  MISS:          0  HIT %:        100  MISS %:          0   MPKI: 0
PSCL5 LOAD      ACCESS:          0  HIT:          0  MISS:          0  HIT %:       -nan  MISS %:       -nan   MPKI: 0
PSCL5 RFO       ACCESS:          0  HIT:          0  MISS:          0  HIT %:       -nan  MISS %:       -nan   MPKI: 0
PSCL5 PREFETCH  ACCESS:          0  HIT:          0  MISS:          0  HIT %:       -nan  MISS %:       -nan   MPKI: 0
PSCL5 WRITEBACK ACCESS:          0  HIT:          0  MISS:          0  HIT %:       -nan  MISS %:       -nan   MPKI: 0
PSCL4 TOTAL     ACCESS:      33434  HIT:      33434  MISS:          0  HIT %:        100  MISS %:          0   MPKI: 0
PSCL4 LOAD      ACCESS:          0  HIT:          0  MISS:          0  HIT %:       -nan  MISS %:       -nan   MPKI: 0
PSCL4 RFO       ACCESS:          0  HIT:          0  MISS:          0  HIT %:       -nan  MISS %:       -nan   MPKI: 0
PSCL4 PREFETCH  ACCESS:          0  HIT:          0  MISS:          0  HIT %:       -nan  MISS %:       -nan   MPKI: 0
PSCL4 WRITEBACK ACCESS:          0  HIT:          0  MISS:          0  HIT %:       -nan  MISS %:       -nan   MPKI: 0
PSCL3 TOTAL     ACCESS:      33422  HIT:      33417  MISS:          5  HIT %:     99.985  MISS %:  0.0149602   MPKI: 6.23617e-06
PSCL3 LOAD      ACCESS:          0  HIT:          0  MISS:          0  HIT %:       -nan  MISS %:       -nan   MPKI: 0
PSCL3 RFO       ACCESS:          0  HIT:          0  MISS:          0  HIT %:       -nan  MISS %:       -nan   MPKI: 0
PSCL3 PREFETCH  ACCESS:          0  HIT:          0  MISS:          0  HIT %:       -nan  MISS %:       -nan   MPKI: 0
PSCL3 WRITEBACK ACCESS:          0  HIT:          0  MISS:          0  HIT %:       -nan  MISS %:       -nan   MPKI: 0
PSCL2 TOTAL     ACCESS:      33434  HIT:      16210  MISS:      17224  HIT %:    48.4836  MISS %:    51.5164   MPKI: 0.0214823
PSCL2 LOAD      ACCESS:          0  HIT:          0  MISS:          0  HIT %:       -nan  MISS %:       -nan   MPKI: 0
PSCL2 RFO       ACCESS:          0  HIT:          0  MISS:          0  HIT %:       -nan  MISS %:       -nan   MPKI: 0
PSCL2 PREFETCH  ACCESS:          0  HIT:          0  MISS:          0  HIT %:       -nan  MISS %:       -nan   MPKI: 0
PSCL2 WRITEBACK ACCESS:          0  HIT:          0  MISS:          0  HIT %:       -nan  MISS %:       -nan   MPKI: 0
=== CPU 0 L1D Prefetcher Statistics ===
[MLOP] History of tracked zone:
IIIIIIIIIIIIIIIIIIIIIIIIIIIIIIIIIIIIIIIIIIIIIIIIIIIIIIIIIIIIIIII
IIIIIIIIIIIIIIIIIIIIIIIIIIIIIIIIIIIIIIIIIIIIIIIIIIAIIIIIIIIIIIII
IIIIIIIIIIIIIIIIIIIIIIIIIIIIIAIIIIIIIIIIIIIIIIIIIIAIIIIIIIIIIIII
IIIIIIIAIIIIIIIIIIIIIIIIIIIIIAIIIIIIIIIIIIIIIIIIIIAIIIIIIIIIIIII
IIIIIIIAIIIIIIIIIIIIIIIIIIIIAAIIIIIIIIIIIIIIIIIIIIAIIIIIIIIIIIII
IIIIIIIAIIIIIIIIIIIIIIIIIIIIAAIIIIIIIIIIIIIIIIIIIIAAIIIIIIIIIIII
IIIIIIIAAIIIIIIIIIIIIIIIIIIIAAIIIIIIIIIIIIIIIIIIIIAAIIIIIIIIIIII
IIIIIIIAAIIIIIIIIIIIIIIIIIIIAAAIIIIIIIIIIIIIIIIIIIAAIIIIIIIIIIII
IIIIIIIAAIIIIIIIIIIIIIIIIIIIAAAIIIIIIIIIIIIIIIIIIIAA1IIIIIIIIIII
IIIIIIIAAIIIIIIIIIIIIIIIIIIIAAA1IIIIIIIIIIIIIIIIIIAA1IIIIIIIIIII
IIIIIIIAA1IIIIIIIIIIIIIIIIIIAAA1IIIIIIIIIIIIIIIIIIAA1IIIIIIIIIII
IIIIIIIAA1IIIIIIIIIIIIIIIIIIAAA1IIIIIIIIIIIIIIIIIIAAA1IIIIIIIIII
IIIIIIIAAA1IIIIIIIIIIIIIIIIIAAA1IIIIIIIIIIIIIIIIIIAAA1IIIIIIIIII
IIIIIIIAAA1IIIIIIIIIIIIIIIIIAAAA1IIIIIIIIIIIIIIIIIAAA1IIIIIIIIII
IIIIIIIAAA1IIIIIIIIIIIIIIIIIAAAA1IIIIIIIIIIIIIIIIIAAAA1IIIIIIIII
IIIIIIIAAAA1IIIIIIIIIIIIIIIIAAAA1IIIIIIIIIIIIIIIIIAAAA1IIIIIIIII
IIIIIIIAAAA1IIIIIIIIIIIIIIIIAAAA11IIIIIIIIIIIIIIIIAAAA1IIIIIIIII
IIIIIIIAAAA1IIIIIIIIIIIIIIIIAAAA11IIIIIIIIIIIIIIIIAAAA11IIIIIIII
IIIIIIIAAAA11IIIIIIIIIIIIIIIAAAA11IIIIIIIIIIIIIIIIAAAA11IIIIIIII
IIIIIIIAAAA11IIIIIIIIIIIIIIIAAAAA11IIIIIIIIIIIIIIIAAAA11IIIIIIII
IIIIIIIAAAA11IIIIIIIIIIIIIIIAAAAA11IIIIIIIIIIIIIIIAAAAA11IIIIIII
IIIIIIIAAAAA11IIIIIIIIIIIIIIAAAAA11IIIIIIIIIIIIIIIAAAAA11IIIIIII
IIIIIIIAAAAA11IIIIIIIIIIIIIIAAAAAA11IIIIIIIIIIIIIIAAAAA11IIIIIII
IIIIIIIAAAAA11IIIIIIIIIIIIIIAAAAAA11IIIIIIIIIIIIIIAAAAA111IIIIII
IIIIIIIAAAAA11IIIIIIIIIIIIIIAAAAAA111IIIIIIIIIIIIIAAAAA111IIIIII
IIIIIIIAAAAA111IIIIIIIIIIIIIAAAAAA111IIIIIIIIIIIIIAAAAA111IIIIII
IIIIIIIAAAAA111IIIIIIIIIIIIIAAAAAA111IIIIIIIIIIIIIAAAAAA111IIIII
IIIIIIIAAAAAA111IIIIIIIIIIIIAAAAAA111IIIIIIIIIIIIIAAAAAA111IIIII
IIIIIIIAAAAAA111IIIIIIIIIIIIAAAAAAA111IIIIIIIIIIIIAAAAAA111IIIII
IIIIIIIAAAAAA111IIIIIIIIIIIIAAAAAAA111IIIIIIIIIIIIAAAAAAA111IIII
IIIIIIIAAAAAAA111IIIIIIIIIIIAAAAAAA111IIIIIIIIIIIIAAAAAAA111IIII
IIIIIIIAAAAAAA111IIIIIIIIIIIAAAAAAA111IIIIIIIIIIIIAAAAAAA1111III
IIIIIIIAAAAAAA111IIIIIIIIIIIAAAAAAA1111IIIIIIIIIIIAAAAAAA1111III
IIIIIIIAAAAAAA1111IIIIIIIIIIAAAAAAA1111IIIIIIIIIIIAAAAAAA1111III
IIIIIIIAAAAAAA1111IIIIIIIIIIAAAAAAAA1111IIIIIIIIIIAAAAAAA1111III
IIIIIIIAAAAAAA1111IIIIIIIIIIAAAAAAAA1111IIIIIIIIIIAAAAAAAA1111II
IIIIIIIAAAAAAAA1111IIIIIIIIIAAAAAAAA1111IIIIIIIIIIAAAAAAAA1111II
IIIIIIIAAAAAAAA1111IIIIIIIIIAAAAAAAAA1111IIIIIIIIIAAAAAAAA1111II
IIIIIIIAAAAAAAA1111IIIIIIIIIAAAAAAAAA1111IIIIIIIIIAAAAAAAAA1111I
IIIIIIIAAAAAAAAA1111IIIIIIIIAAAAAAAAA1111IIIIIIIIIAAAAAAAAA1111I
IIIIIIIAAAAAAAAA1111IIIIIIIIAAAAAAAAA1111IIIIIIIIIAAAAAAAAA11111
IIIIIIIAAAAAAAAA1111IIIIIIIIAAAAAAAAA111111IIIIIIIAAAAAAAAA11111
IIIIIIIAAAAAAAAA11111IIIIIIIAAAAAAAAA111111IIIIIIIAAAAAAAAA11111
IIIIIIIAAAAAAAAA111111IIIIIIAAAAAAAAA111111IIIIIIIAAAAAAAAA11111
IIIIIIIAAAAAAAAA111111IIIIIIAAAAAAAAAA111111IIIIIIAAAAAAAAA11111
IIIIIIIAAAAAAAAA111111IIIIIIAAAAAAAAAA111111IIIIIIAAAAAAAAAA1111
IIIIIIIAAAAAAAAAA111111IIIIIAAAAAAAAAA111111IIIIIIAAAAAAAAAA1111
IIIIIIIAAAAAAAAAA11111111IIIAAAAAAAAAA111111IIIIIIAAAAAAAAAA1111
IIIIIIIAAAAAAAAAA11111111IIIAAAAAAAAAA1111111IIIIIAAAAAAAAAA1111
IIIIIIIAAAAAAAAAA11111111IIIAAAAAAAAAAA11111111IIIAAAAAAAAAA1111
IIIIIIIAAAAAAAAAA11111111IIIAAAAAAAAAAA11111111IIIAAAAAAAAAAA111
IIIIIIIAAAAAAAAAAA11111111IIAAAAAAAAAAA11111111IIIAAAAAAAAAAA111
IIIIIIIAAAAAAAAAAA11111111IIAAAAAAAAAAAA11111111IIAAAAAAAAAAA111
IIIIIIIAAAAAAAAAAA11111111IIAAAAAAAAAAAA11111111IIAAAAAAAAAAAA11
IIIIIIIAAAAAAAAAAAA11111111IAAAAAAAAAAAA11111111IIAAAAAAAAAAAA11
IIIIIIIAAAAAAAAAAAA11111111IAAAAAAAAAAAAA1111111IIAAAAAAAAAAAA11
IIIIIIIAAAAAAAAAAAA11111111IAAAAAAAAAAAAA1111111IIAAAAAAAAAAAAA1
IIIIIIIAAAAAAAAAAAAA1111111IAAAAAAAAAAAAA1111111IIAAAAAAAAAAAAA1
IIIIIIIAAAAAAAAAAAAA1111111IAAAAAAAAAAAAAA111111IIAAAAAAAAAAAAA1
IIIIIIIAAAAAAAAAAAAA1111111IAAAAAAAAAAAAAA111111IIAAAAAAAAAAAAAA
IIIIIIIAAAAAAAAAAAAAA111111IAAAAAAAAAAAAAA111111IIAAAAAAAAAAAAAA
IIIIIIIAAAAAAAAAAAAAA111111IAAAAAAAAAAAAAAA11111IIAAAAAAAAAAAAAA
IIIIIIIAAAAAAAAAAAAAAA11111IAAAAAAAAAAAAAAA11111IIAAAAAAAAAAAAAA
IIIIIIIAAAAAAAAAAAAAAA11111IAAAAAAAAAAAAAAAA11111IAAAAAAAAAAAAAA
IIIIIIIAAAAAAAAAAAAAAAA11111AAAAAAAAAAAAAAAA11111IAAAAAAAAAAAAAA
IIIIIIIAAAAAAAAAAAAAAAA11111AAAAAAAAAAAAAAAAA11111AAAAAAAAAAAAAA
IIIIIIIAAAAAAAAAAAAAAAAA1111AAAAAAAAAAAAAAAAA11111AAAAAAAAAAAAAA
IIIIIIIAAAAAAAAAAAAAAAAA1111AAAAAAAAAAAAAAAAAA1111AAAAAAAAAAAAAA
IIIIIIIAAAAAAAAAAAAAAAAAA111AAAAAAAAAAAAAAAAAA1111AAAAAAAAAAAAAA
IIIIIIIAAAAAAAAAAAAAAAAAA111AAAAAAAAAAAAAAAAAAA111AAAAAAAAAAAAAA
IIIIIIIAAAAAAAAAAAAAAAAAAA11AAAAAAAAAAAAAAAAAAA111AAAAAAAAAAAAAA
IIIIIIIAAAAAAAAAAAAAAAAAAA11AAAAAAAAAAAAAAAAAAAA11AAAAAAAAAAAAAA
IIIIIIIAAAAAAAAAAAAAAAAAAAA1AAAAAAAAAAAAAAAAAAAA11AAAAAAAAAAAAAA
IIIIIIIAAAAAAAAAAAAAAAAAAAA1AAAAAAAAAAAAAAAAAAAAA1AAAAAAAAAAAAAA
IIIIIIIAAAAAAAAAAAAAAAAAAAAAAAAAAAAAAAAAAAAAAAAAA1AAAAAAAAAAAAAA
IIIIIIIAAAAAAAAAAAAAAAAAAAAAAAAAAAAAAAAAAAAAAAAAAAAAAAAAAAAAAAAA
A111IIIIIIIIIIIIIIIIIIIIIIIIIIIIIIIIIIIIIIIIIIIIIIIIIIIIIIIIIIII
AA111IIIIIIIIIIIIIIIIIIIIIIIIIIIIIIIIIIIIIIIIIIIIIIIIIIIIIIIIIII
AAA11IIIIIIIIIIIIIIIIIIIIIIIIIIIIIIIIIIIIIIIIIIIIIIIIIIIIIIIIIII
AAA111IIIIIIIIIIIIIIIIIIIIIIIIIIIIIIIIIIIIIIIIIIIIIIIIIIIIIIIIII
AAAA11IIIIIIIIIIIIIIIIIIIIIIIIIIIIIIIIIIIIIIIIIIIIIIIIIIIIIIIIII
AAAA111IIIIIIIIIIIIIIIIIIIIIIIIIIIIIIIIIIIIIIIIIIIIIIIIIIIIIIIII
AAAAA111IIIIIIIIIIIIIIIIIIIIIIIIIIIIIIIIIIIIIIIIIIIIIIIIIIIIIIII
AAAAAA111IIIIIIIIIIIIIIIIIIIIIIIIIIIIIIIIIIIIIIIIIIIIIIIIIIIIIII
AAAAAAA111IIIIIIIIIIIIIIIIIIIIIIIIIIIIIIIIIIIIIIIIIIIIIIIIIIIIII
AAAAAAAA11IIIIIIIIIIIIIIIIIIIIIIIIIIIIIIIIIIIIIIIIIIIIIIIIIIIIII
AAAAAAAA111IIIIIIIIIIIIIIIIIIIIIIIIIIIIIIIIIIIIIIIIIIIIIIIIIIIII
AAAAAAAAA11IIIIIIIIIIIIIIIIIIIIIIIIIIIIIIIIIIIIIIIIIIIIIIIIIIIII
AAAAAAAAA111IIIIIIIIIIIIIIIIIIIIIIIIIIIIIIIIIIIIIIIIIIIIIIIIIIII
AAAAAAAAAA11IIIIIIIIIIIIIIIIIIIIIIIIIIIIIIIIIIIIIIIIIIIIIIIIIIII
AAAAAAAAAA111IIIIIIIIIIIIIIIIIIIIIIIIIIIIIIIIIIIIIIIIIIIIIIIIIII
AAAAAAAAAAA111IIIIIIIIIIIIIIIIIIIIIIIIIIIIIIIIIIIIIIIIIIIIIIIIII
AAAAAAAAAAAA111IIIIIIIIIIIIIIIIIIIIIIIIIIIIIIIIIIIIIIIIIIIIIIIII
AAAAAAAAAAAA1111IIIIIIIIIIIIIIIIIIIIIIIIIIIIIIIIIIIIIIIIIIIIIIII
AAAAAAAAAAAAA111IIIIIIIIIIIIIIIIIIIIIIIIIIIIIIIIIIIIIIIIIIIIIIII
AAAAAAAAAAAAA11111IIIIIIIIIIIIIIIIIIIIIIIIIIIIIIIIIIIIIIIIIIIIII
AAAAAAAAAAAAAA1111IIIIIIIIIIIIIIIIIIIIIIIIIIIIIIIIIIIIIIIIIIIIII
AAAAAAAAAAAAAA11111IIIIIIIIIIIIIIIIIIIIIIIIIIIIIIIIIIIIIIIIIIIII
AAAAAAAAAAAAAAA1111IIIIIIIIIIIIIIIIIIIIIIIIIIIIIIIIIIIIIIIIIIIII
AAAAAAAAAAAAAAA11111IIIIIIIIIIIIIIIIIIIIIIIIIIIIIIIIIIIIIIIIIIII
AAAAAAAAAAAAAAAA11111IIIIIIIIIIIIIIIIIIIIIIIIIIIIIIIIIIIIIIIIIII
AAAAAAAAAAAAAAAAA1111IIIIIIIIIIIIIIIIIIIIIIIIIIIIIIIIIIIIIIIIIII
AAAAAAAAAAAAAAAAA11111IIIIIIIIIIIIIIIIIIIIIIIIIIIIIIIIIIIIIIIIII
AAAAAAAAAAAAAAAAAA11111IIIIIIIIIIIIIIIIIIIIIIIIIIIIIIIIIIIIIIIII
AAAAAAAAAAAAAAAAAAA1111IIIIIIIIIIIIIIIIIIIIIIIIIIIIIIIIIIIIIIIII
AAAAAAAAAAAAAAAAAAAA111IIIIIIIIIIIIIIIIIIIIIIIIIIIIIIIIIIIIIIIII
AAAAAAAAAAAAAAAAAAAAA11IIIIIIIIIIIIIIIIIIIIIIIIIIIIIIIIIIIIIIIII
AAAAAAAAAAAAAAAAAAAAA111IIIIIIIIIIIIIIIIIIIIIIIIIIIIIIIIIIIIIIII
AAAAAAAAAAAAAAAAAAAAAA11IIIIIIIIIIIIIIIIIIIIIIIIIIIIIIIIIIIIIIII
AAAAAAAAAAAAAAAAAAAAAA111IIIIIIIIIIIIIIIIIIIIIIIIIIIIIIIIIIIIIII
AAAAAAAAAAAAAAAAAAAAAAA11IIIIIIIIIIIIIIIIIIIIIIIIIIIIIIIIIIIIIII
AAAAAAAAAAAAAAAAAAAAAAA111IIIIIIIIIIIIIIIIIIIIIIIIIIIIIIIIIIIIII
AAAAAAAAAAAAAAAAAAAAAAAA11IIIIIIIIIIIIIIIIIIIIIIIIIIIIIIIIIIIIII
AAAAAAAAAAAAAAAAAAAAAAAA111IIIIIIIIIIIIIIIIIIIIIIIIIIIIIIIIIIIII
AAAAAAAAAAAAAAAAAAAAAAAAA111IIIIIIIIIIIIIIIIIIIIIIIIIIIIIIIIIIII
AAAAAAAAAAAAAAAAAAAAAAAAA1111IIIIIIIIIIIIIIIIIIIIIIIIIIIIIIIIIII
AAAAAAAAAAAAAAAAAAAAAAAAAA1111IIIIIIIIIIIIIIIIIIIIIIIIIIIIIIIIII
AAAAAAAAAAAAAAAAAAAAAAAAAAA111IIIIIIIIIIIIIIIIIIIIIIIIIIIIIIIIII
AAAAAAAAAAAAAAAAAAAAAAAAAAA1111IIIIIIIIIIIIIIIIIIIIIIIIIIIIIIIII
AAAAAAAAAAAAAAAAAAAAAAAAAAAA111IIIIIIIIIIIIIIIIIIIIIIIIIIIIIIIII
AAAAAAAAAAAAAAAAAAAAAAAAAAAAA1111IIIIIIIIIIIIIIIIIIIIIIIIIIIIIII
AAAAAAAAAAAAAAAAAAAAAAAAAAAAAA1111IIIIIIIIIIIIIIIIIIIIIIIIIIIIII
AAAAAAAAAAAAAAAAAAAAAAAAAAAAAAA111IIIIIIIIIIIIIIIIIIIIIIIIIIIIII
AAAAAAAAAAAAAAAAAAAAAAAAAAAAAAA1111IIIIIIIIIIIIIIIIIIIIIIIIIIIII
AAAAAAAAAAAAAAAAAAAAAAAAAAAAAAAA111IIIIIIIIIIIIIIIIIIIIIIIIIIIII
AAAAAAAAAAAAAAAAAAAAAAAAAAAAAAAA1111IIIIIIIIIIIIIIIIIIIIIIIIIIII
AAAAAAAAAAAAAAAAAAAAAAAAAAAAAAAAA111IIIIIIIIIIIIIIIIIIIIIIIIIIII
AAAAAAAAAAAAAAAAAAAAAAAAAAAAAAAAA1111IIIIIIIIIIIIIIIIIIIIIIIIIII
AAAAAAAAAAAAAAAAAAAAAAAAAAAAAAAAAA111IIIIIIIIIIIIIIIIIIIIIIIIIII
AAAAAAAAAAAAAAAAAAAAAAAAAAAAAAAAAA1111IIIIIIIIIIIIIIIIIIIIIIIIII
AAAAAAAAAAAAAAAAAAAAAAAAAAAAAAAAAAA111IIIIIIIIIIIIIIIIIIIIIIIIII
AAAAAAAAAAAAAAAAAAAAAAAAAAAAAAAAAAA1111IIIIIIIIIIIIIIIIIIIIIIIII
AAAAAAAAAAAAAAAAAAAAAAAAAAAAAAAAAAAA111IIIIIIIIIIIIIIIIIIIIIIIII
AAAAAAAAAAAAAAAAAAAAAAAAAAAAAAAAAAAA1111IIIIIIIIIIIIIIIIIIIIIIII
AAAAAAAAAAAAAAAAAAAAAAAAAAAAAAAAAAAAA1111IIIIIIIIIIIIIIIIIIIIIII
AAAAAAAAAAAAAAAAAAAAAAAAAAAAAAAAAAAAAA111IIIIIIIIIIIIIIIIIIIIIII
AAAAAAAAAAAAAAAAAAAAAAAAAAAAAAAAAAAAAAA111IIIIIIIIIIIIIIIIIIIIII
AAAAAAAAAAAAAAAAAAAAAAAAAAAAAAAAAAAAAAAA11IIIIIIIIIIIIIIIIIIIIII
AAAAAAAAAAAAAAAAAAAAAAAAAAAAAAAAAAAAAAAA111IIIIIIIIIIIIIIIIIIIII
AAAAAAAAAAAAAAAAAAAAAAAAAAAAAAAAAAAAAAAAA11IIIIIIIIIIIIIIIIIIIII
AAAAAAAAAAAAAAAAAAAAAAAAAAAAAAAAAAAAAAAAA111IIIIIIIIIIIIIIIIIIII
AAAAAAAAAAAAAAAAAAAAAAAAAAAAAAAAAAAAAAAAAA11IIIIIIIIIIIIIIIIIIII
AAAAAAAAAAAAAAAAAAAAAAAAAAAAAAAAAAAAAAAAAA111IIIIIIIIIIIIIIIIIII
AAAAAAAAAAAAAAAAAAAAAAAAAAAAAAAAAAAAAAAAAAA111IIIIIIIIIIIIIIIIII
AAAAAAAAAAAAAAAAAAAAAAAAAAAAAAAAAAAAAAAAAAAA11IIIIIIIIIIIIIIIIII
AAAAAAAAAAAAAAAAAAAAAAAAAAAAAAAAAAAAAAAAAAAA111IIIIIIIIIIIIIIIII
AAAAAAAAAAAAAAAAAAAAAAAAAAAAAAAAAAAAAAAAAAAAA11IIIIIIIIIIIIIIIII
AAAAAAAAAAAAAAAAAAAAAAAAAAAAAAAAAAAAAAAAAAAAA1111IIIIIIIIIIIIIII
AAAAAAAAAAAAAAAAAAAAAAAAAAAAAAAAAAAAAAAAAAAAAA1111111IIIIIIIIIII
AAAAAAAAAAAAAAAAAAAAAAAAAAAAAAAAAAAAAAAAAAAAAA11111111IIIIIIIIII
AAAAAAAAAAAAAAAAAAAAAAAAAAAAAAAAAAAAAAAAAAAAAAA11111111IIIIIIIII
AAAAAAAAAAAAAAAAAAAAAAAAAAAAAAAAAAAAAAAAAAAAAAAA11111111IIIIIIII
AAAAAAAAAAAAAAAAAAAAAAAAAAAAAAAAAAAAAAAAAAAAAAAAA11111111IIIIIII
AAAAAAAAAAAAAAAAAAAAAAAAAAAAAAAAAAAAAAAAAAAAAAAAAA1111111IIIIIII
AAAAAAAAAAAAAAAAAAAAAAAAAAAAAAAAAAAAAAAAAAAAAAAAAA11111111IIIIII
AAAAAAAAAAAAAAAAAAAAAAAAAAAAAAAAAAAAAAAAAAAAAAAAAAA11111111IIIII
AAAAAAAAAAAAAAAAAAAAAAAAAAAAAAAAAAAAAAAAAAAAAAAAAAAA1111111IIIII
AAAAAAAAAAAAAAAAAAAAAAAAAAAAAAAAAAAAAAAAAAAAAAAAAAAAA111111IIIII
AAAAAAAAAAAAAAAAAAAAAAAAAAAAAAAAAAAAAAAAAAAAAAAAAAAAAA11111IIIII
AAAAAAAAAAAAAAAAAAAAAAAAAAAAAAAAAAAAAAAAAAAAAAAAAAAAAAA1111IIIII
AAAAAAAAAAAAAAAAAAAAAAAAAAAAAAAAAAAAAAAAAAAAAAAAAAAAAAAA1111IIII
AAAAAAAAAAAAAAAAAAAAAAAAAAAAAAAAAAAAAAAAAAAAAAAAAAAAAAAAA1111III
AAAAAAAAAAAAAAAAAAAAAAAAAAAAAAAAAAAAAAAAAAAAAAAAAAAAAAAAAA1111II
AAAAAAAAAAAAAAAAAAAAAAAAAAAAAAAAAAAAAAAAAAAAAAAAAAAAAAAAAAA111II
AAAAAAAAAAAAAAAAAAAAAAAAAAAAAAAAAAAAAAAAAAAAAAAAAAAAAAAAAAA1111I
AAAAAAAAAAAAAAAAAAAAAAAAAAAAAAAAAAAAAAAAAAAAAAAAAAAAAAAAAAAA1111
AAAAAAAAAAAAAAAAAAAAAAAAAAAAAAAAAAAAAAAAAAAAAAAAAAAAAAAAAAAAA111
AAAAAAAAAAAAAAAAAAAAAAAAAAAAAAAAAAAAAAAAAAAAAAAAAAAAAAAAAAAAAA11
AAAAAAAAAAAAAAAAAAAAAAAAAAAAAAAAAAAAAAAAAAAAAAAAAAAAAAAAAAAAAAA1
AAAAAAAAAAAAAAAAAAAAAAAAAAAAAAAAAAAAAAAAAAAAAAAAAAAAAAAAAAAAAAAA
A111IIIIIIIIIIIIIIIIIIIIIIIIIIIIIIIIIIIIIIIIIIIIIIIIIIIIIIIIIIII
AA111IIIIIIIIIIIIIIIIIIIIIIIIIIIIIIIIIIIIIIIIIIIIIIIIIIIIIIIIIII
AAA11IIIIIIIIIIIIIIIIIIIIIIIIIIIIIIIIIIIIIIIIIIIIIIIIIIIIIIIIIII
AAA111IIIIIIIIIIIIIIIIIIIIIIIIIIIIIIIIIIIIIIIIIIIIIIIIIIIIIIIIII
AAAA11IIIIIIIIIIIIIIIIIIIIIIIIIIIIIIIIIIIIIIIIIIIIIIIIIIIIIIIIII
AAAA111IIIIIIIIIIIIIIIIIIIIIIIIIIIIIIIIIIIIIIIIIIIIIIIIIIIIIIIII
AAAAA11IIIIIIIIIIIIIIIIIIIIIIIIIIIIIIIIIIIIIIIIIIIIIIIIIIIIIIIII
AAAAA111IIIIIIIIIIIIIIIIIIIIIIIIIIIIIIIIIIIIIIIIIIIIIIIIIIIIIIII
AAAAAA111IIIIIIIIIIIIIIIIIIIIIIIIIIIIIIIIIIIIIIIIIIIIIIIIIIIIIII
AAAAAAA11IIIIIIIIIIIIIIIIIIIIIIIIIIIIIIIIIIIIIIIIIIIIIIIIIIIIIII
AAAAAAAA1IIIIIIIIIIIIIIIIIIIIIIIIIIIIIIIIIIIIIIIIIIIIIIIIIIIIIII
AAAAAAAA111IIIIIIIIIIIIIIIIIIIIIIIIIIIIIIIIIIIIIIIIIIIIIIIIIIIII
AAAAAAAAA11IIIIIIIIIIIIIIIIIIIIIIIIIIIIIIIIIIIIIIIIIIIIIIIIIIIII
AAAAAAAAA111IIIIIIIIIIIIIIIIIIIIIIIIIIIIIIIIIIIIIIIIIIIIIIIIIIII
AAAAAAAAAA11IIIIIIIIIIIIIIIIIIIIIIIIIIIIIIIIIIIIIIIIIIIIIIIIIIII
AAAAAAAAAA111IIIIIIIIIIIIIIIIIIIIIIIIIIIIIIIIIIIIIIIIIIIIIIIIIII
AAAAAAAAAAA111IIIIIIIIIIIIIIIIIIIIIIIIIIIIIIIIIIIIIIIIIIIIIIIIII
AAAAAAAAAAA1111IIIIIIIIIIIIIIIIIIIIIIIIIIIIIIIIIIIIIIIIIIIIIIIII
AAAAAAAAAAAA111IIIIIIIIIIIIIIIIIIIIIIIIIIIIIIIIIIIIIIIIIIIIIIIII
AAAAAAAAAAAA1111IIIIIIIIIIIIIIIIIIIIIIIIIIIIIIIIIIIIIIIIIIIIIIII
AAAAAAAAAAAAA1111IIIIIIIIIIIIIIIIIIIIIIIIIIIIIIIIIIIIIIIIIIIIIII
AAAAAAAAAAAAAA1111IIIIIIIIIIIIIIIIIIIIIIIIIIIIIIIIIIIIIIIIIIIIII
AAAAAAAAAAAAAAA1111IIIIIIIIIIIIIIIIIIIIIIIIIIIIIIIIIIIIIIIIIIIII
AAAAAAAAAAAAAAAA1111IIIIIIIIIIIIIIIIIIIIIIIIIIIIIIIIIIIIIIIIIIII
AAAAAAAAAAAAAAAAA111IIIIIIIIIIIIIIIIIIIIIIIIIIIIIIIIIIIIIIIIIIII
AAAAAAAAAAAAAAAAA1111IIIIIIIIIIIIIIIIIIIIIIIIIIIIIIIIIIIIIIIIIII
AAAAAAAAAAAAAAAAAA111IIIIIIIIIIIIIIIIIIIIIIIIIIIIIIIIIIIIIIIIIII
AAAAAAAAAAAAAAAAAAA111IIIIIIIIIIIIIIIIIIIIIIIIIIIIIIIIIIIIIIIIII
AAAAAAAAAAAAAAAAAAAA11IIIIIIIIIIIIIIIIIIIIIIIIIIIIIIIIIIIIIIIIII
AAAAAAAAAAAAAAAAAAAA111IIIIIIIIIIIIIIIIIIIIIIIIIIIIIIIIIIIIIIIII
AAAAAAAAAAAAAAAAAAAAA11IIIIIIIIIIIIIIIIIIIIIIIIIIIIIIIIIIIIIIIII
AAAAAAAAAAAAAAAAAAAAA111IIIIIIIIIIIIIIIIIIIIIIIIIIIIIIIIIIIIIIII
AAAAAAAAAAAAAAAAAAAAAA11IIIIIIIIIIIIIIIIIIIIIIIIIIIIIIIIIIIIIIII
AAAAAAAAAAAAAAAAAAAAAA111IIIIIIIIIIIIIIIIIIIIIIIIIIIIIIIIIIIIIII
AAAAAAAAAAAAAAAAAAAAAAA11IIIIIIIIIIIIIIIIIIIIIIIIIIIIIIIIIIIIIII
AAAAAAAAAAAAAAAAAAAAAAA111IIIIIIIIIIIIIIIIIIIIIIIIIIIIIIIIIIIIII
AAAAAAAAAAAAAAAAAAAAAAAA11IIIIIIIIIIIIIIIIIIIIIIIIIIIIIIIIIIIIII
AAAAAAAAAAAAAAAAAAAAAAAA111IIIIIIIIIIIIIIIIIIIIIIIIIIIIIIIIIIIII
AAAAAAAAAAAAAAAAAAAAAAAAA11IIIIIIIIIIIIIIIIIIIIIIIIIIIIIIIIIIIII
AAAAAAAAAAAAAAAAAAAAAAAAA111IIIIIIIIIIIIIIIIIIIIIIIIIIIIIIIIIIII
AAAAAAAAAAAAAAAAAAAAAAAAAA111IIIIIIIIIIIIIIIIIIIIIIIIIIIIIIIIIII
AAAAAAAAAAAAAAAAAAAAAAAAAAA11IIIIIIIIIIIIIIIIIIIIIIIIIIIIIIIIIII
AAAAAAAAAAAAAAAAAAAAAAAAAAA111IIIIIIIIIIIIIIIIIIIIIIIIIIIIIIIIII
AAAAAAAAAAAAAAAAAAAAAAAAAAAA11IIIIIIIIIIIIIIIIIIIIIIIIIIIIIIIIII
AAAAAAAAAAAAAAAAAAAAAAAAAAAAA111IIIIIIIIIIIIIIIIIIIIIIIIIIIIIIII
AAAAAAAAAAAAAAAAAAAAAAAAAAAAAA11IIIIIIIIIIIIIIIIIIIIIIIIIIIIIIII
AAAAAAAAAAAAAAAAAAAAAAAAAAAAAA111IIIIIIIIIIIIIIIIIIIIIIIIIIIIIII
AAAAAAAAAAAAAAAAAAAAAAAAAAAAAAA11IIIIIIIIIIIIIIIIIIIIIIIIIIIIIII
AAAAAAAAAAAAAAAAAAAAAAAAAAAAAAA1111IIIIIIIIIIIIIIIIIIIIIIIIIIIII
AAAAAAAAAAAAAAAAAAAAAAAAAAAAAAAA111IIIIIIIIIIIIIIIIIIIIIIIIIIIII
AAAAAAAAAAAAAAAAAAAAAAAAAAAAAAAA1111IIIIIIIIIIIIIIIIIIIIIIIIIIII
AAAAAAAAAAAAAAAAAAAAAAAAAAAAAAAAA111IIIIIIIIIIIIIIIIIIIIIIIIIIII
AAAAAAAAAAAAAAAAAAAAAAAAAAAAAAAAA1111IIIIIIIIIIIIIIIIIIIIIIIIIII
AAAAAAAAAAAAAAAAAAAAAAAAAAAAAAAAAA111IIIIIIIIIIIIIIIIIIIIIIIIIII
AAAAAAAAAAAAAAAAAAAAAAAAAAAAAAAAAA1111IIIIIIIIIIIIIIIIIIIIIIIIII
AAAAAAAAAAAAAAAAAAAAAAAAAAAAAAAAAAA1111IIIIIIIIIIIIIIIIIIIIIIIII
AAAAAAAAAAAAAAAAAAAAAAAAAAAAAAAAAAAA1111IIIIIIIIIIIIIIIIIIIIIIII
AAAAAAAAAAAAAAAAAAAAAAAAAAAAAAAAAAAAA111IIIIIIIIIIIIIIIIIIIIIIII
AAAAAAAAAAAAAAAAAAAAAAAAAAAAAAAAAAAAA1111IIIIIIIIIIIIIIIIIIIIIII
AAAAAAAAAAAAAAAAAAAAAAAAAAAAAAAAAAAAAA111IIIIIIIIIIIIIIIIIIIIIII
AAAAAAAAAAAAAAAAAAAAAAAAAAAAAAAAAAAAAAA11IIIIIIIIIIIIIIIIIIIIIII
AAAAAAAAAAAAAAAAAAAAAAAAAAAAAAAAAAAAAAA111IIIIIIIIIIIIIIIIIIIIII
AAAAAAAAAAAAAAAAAAAAAAAAAAAAAAAAAAAAAAAA111IIIIIIIIIIIIIIIIIIIII
AAAAAAAAAAAAAAAAAAAAAAAAAAAAAAAAAAAAAAAAA11IIIIIIIIIIIIIIIIIIIII
AAAAAAAAAAAAAAAAAAAAAAAAAAAAAAAAAAAAAAAAA111IIIIIIIIIIIIIIIIIIII
AAAAAAAAAAAAAAAAAAAAAAAAAAAAAAAAAAAAAAAAAA11IIIIIIIIIIIIIIIIIIII
AAAAAAAAAAAAAAAAAAAAAAAAAAAAAAAAAAAAAAAAAA111IIIIIIIIIIIIIIIIIII
AAAAAAAAAAAAAAAAAAAAAAAAAAAAAAAAAAAAAAAAAAA11IIIIIIIIIIIIIIIIIII
AAAAAAAAAAAAAAAAAAAAAAAAAAAAAAAAAAAAAAAAAAA111IIIIIIIIIIIIIIIIII
AAAAAAAAAAAAAAAAAAAAAAAAAAAAAAAAAAAAAAAAAAAA11IIIIIIIIIIIIIIIIII
AAAAAAAAAAAAAAAAAAAAAAAAAAAAAAAAAAAAAAAAAAAA111IIIIIIIIIIIIIIIII
AAAAAAAAAAAAAAAAAAAAAAAAAAAAAAAAAAAAAAAAAAAAA11IIIIIIIIIIIIIIIII
AAAAAAAAAAAAAAAAAAAAAAAAAAAAAAAAAAAAAAAAAAAAA111IIIIIIIIIIIIIIII
AAAAAAAAAAAAAAAAAAAAAAAAAAAAAAAAAAAAAAAAAAAAAA111IIIIIIIIIIIIIII
AAAAAAAAAAAAAAAAAAAAAAAAAAAAAAAAAAAAAAAAAAAAAAA111IIIIIIIIIIIIII
AAAAAAAAAAAAAAAAAAAAAAAAAAAAAAAAAAAAAAAAAAAAAAAA11IIIIIIIIIIIIII
AAAAAAAAAAAAAAAAAAAAAAAAAAAAAAAAAAAAAAAAAAAAAAAA111IIIIIIIIIIIII
AAAAAAAAAAAAAAAAAAAAAAAAAAAAAAAAAAAAAAAAAAAAAAAAA11IIIIIIIIIIIII
AAAAAAAAAAAAAAAAAAAAAAAAAAAAAAAAAAAAAAAAAAAAAAAAA111IIIIIIIIIIII
AAAAAAAAAAAAAAAAAAAAAAAAAAAAAAAAAAAAAAAAAAAAAAAAAA111IIIIIIIIIII
AAAAAAAAAAAAAAAAAAAAAAAAAAAAAAAAAAAAAAAAAAAAAAAAAAA11IIIIIIIIIII
AAAAAAAAAAAAAAAAAAAAAAAAAAAAAAAAAAAAAAAAAAAAAAAAAAA111IIIIIIIIII
AAAAAAAAAAAAAAAAAAAAAAAAAAAAAAAAAAAAAAAAAAAAAAAAAAAA111IIIIIIIII
AAAAAAAAAAAAAAAAAAAAAAAAAAAAAAAAAAAAAAAAAAAAAAAAAAAAA111IIIIIIII
AAAAAAAAAAAAAAAAAAAAAAAAAAAAAAAAAAAAAAAAAAAAAAAAAAAAAA11IIIIIIII
AAAAAAAAAAAAAAAAAAAAAAAAAAAAAAAAAAAAAAAAAAAAAAAAAAAAAA111IIIIIII
AAAAAAAAAAAAAAAAAAAAAAAAAAAAAAAAAAAAAAAAAAAAAAAAAAAAAAA11IIIIIII
AAAAAAAAAAAAAAAAAAAAAAAAAAAAAAAAAAAAAAAAAAAAAAAAAAAAAAA111IIIIII
AAAAAAAAAAAAAAAAAAAAAAAAAAAAAAAAAAAAAAAAAAAAAAAAAAAAAAAA11IIIIII
AAAAAAAAAAAAAAAAAAAAAAAAAAAAAAAAAAAAAAAAAAAAAAAAAAAAAAAA111IIIII
AAAAAAAAAAAAAAAAAAAAAAAAAAAAAAAAAAAAAAAAAAAAAAAAAAAAAAAAA11111II
AAAAAAAAAAAAAAAAAAAAAAAAAAAAAAAAAAAAAAAAAAAAAAAAAAAAAAAAAA1111II
AAAAAAAAAAAAAAAAAAAAAAAAAAAAAAAAAAAAAAAAAAAAAAAAAAAAAAAAAA111111
AAAAAAAAAAAAAAAAAAAAAAAAAAAAAAAAAAAAAAAAAAAAAAAAAAAAAAAAAAA11111
AAAAAAAAAAAAAAAAAAAAAAAAAAAAAAAAAAAAAAAAAAAAAAAAAAAAAAAAAAAA1111
AAAAAAAAAAAAAAAAAAAAAAAAAAAAAAAAAAAAAAAAAAAAAAAAAAAAAAAAAAAAA111
AAAAAAAAAAAAAAAAAAAAAAAAAAAAAAAAAAAAAAAAAAAAAAAAAAAAAAAAAAAAAA11
AAAAAAAAAAAAAAAAAAAAAAAAAAAAAAAAAAAAAAAAAAAAAAAAAAAAAAAAAAAAAAA1
AAAAAAAAAAAAAAAAAAAAAAAAAAAAAAAAAAAAAAAAAAAAAAAAAAAAAAAAAAAAAAAA
[MLOP] Prefetch Degree Mean: 3.69421
[MLOP] Prefetch Degree SD: 1.21758
[MLOP] Max Score Left Mean (%): 90.8774
[MLOP] Max Score Left SD (%): 16.6328
[MLOP] Max Score Right Mean (%): 95.3541
[MLOP] Max Score Right SD (%): 14.9234
LLC TOTAL     ACCESS:    4897432  HIT:    2646225  MISS:    2251207  HIT %:    54.0329  MISS %:    45.9671   MPKI: 2.80778
LLC LOAD      ACCESS:    2302308  HIT:    2154377  MISS:     147931  HIT %:    93.5747  MISS %:    6.42533   MPKI: 0.184504
LLC RFO       ACCESS:     469377  HIT:         67  MISS:     469310  HIT %:  0.0142742  MISS %:    99.9857   MPKI: 0.585339
LLC PREFETCH  ACCESS:    1598089  HIT:      15541  MISS:    1582548  HIT %:   0.972474  MISS %:    99.0275   MPKI: 1.97381
LLC WRITEBACK ACCESS:     483995  HIT:     438840  MISS:      45155  HIT %:    90.6704  MISS %:    9.32964   MPKI: 0.0563188

RAW hits: 2891646
Loads Generated: 312041615
Loads sent to L1D: 309149968
Stores Generated: 64207258
Stores sent to L1D: 64207260

CPU 1 cumulative IPC: 0.615106 instructions: 499586922 cycles: 812196087
ITLB TOTAL     ACCESS:   81710472  HIT:   81710472  MISS:          0  HIT %:        100  MISS %:          0   MPKI: 0
ITLB LOAD      ACCESS:          0  HIT:          0  MISS:          0  HIT %:       -nan  MISS %:       -nan   MPKI: 0
ITLB RFO       ACCESS:          0  HIT:          0  MISS:          0  HIT %:       -nan  MISS %:       -nan   MPKI: 0
ITLB PREFETCH  ACCESS:          0  HIT:          0  MISS:          0  HIT %:       -nan  MISS %:       -nan   MPKI: 0
ITLB WRITEBACK ACCESS:          0  HIT:          0  MISS:          0  HIT %:       -nan  MISS %:       -nan   MPKI: 0
DTLB TOTAL     ACCESS:   52127754  HIT:   52071368  MISS:      56386  HIT %:    99.8918  MISS %:   0.108169   MPKI: 0.112865
DTLB LOAD      ACCESS:          0  HIT:          0  MISS:          0  HIT %:       -nan  MISS %:       -nan   MPKI: 0
DTLB RFO       ACCESS:          0  HIT:          0  MISS:          0  HIT %:       -nan  MISS %:       -nan   MPKI: 0
DTLB PREFETCH  ACCESS:          0  HIT:          0  MISS:          0  HIT %:       -nan  MISS %:       -nan   MPKI: 0
DTLB WRITEBACK ACCESS:          0  HIT:          0  MISS:          0  HIT %:       -nan  MISS %:       -nan   MPKI: 0
STLB TOTAL     ACCESS:    1446666  HIT:    1390280  MISS:      56386  HIT %:    96.1023  MISS %:    3.89765   MPKI: 0.112865
STLB LOAD      ACCESS:          0  HIT:          0  MISS:          0  HIT %:       -nan  MISS %:       -nan   MPKI: 0
STLB RFO       ACCESS:          0  HIT:          0  MISS:          0  HIT %:       -nan  MISS %:       -nan   MPKI: 0
STLB PREFETCH  ACCESS:          0  HIT:          0  MISS:          0  HIT %:       -nan  MISS %:       -nan   MPKI: 0
STLB WRITEBACK ACCESS:          0  HIT:          0  MISS:          0  HIT %:       -nan  MISS %:       -nan   MPKI: 0
L1D TOTAL     ACCESS:   36349005  HIT:   32735177  MISS:    3613828  HIT %:     90.058  MISS %:    9.94203   MPKI: 7.23363
L1D LOAD      ACCESS:   32756201  HIT:   32317539  MISS:     438662  HIT %:    98.6608  MISS %:    1.33917   MPKI: 0.878049
L1D RFO       ACCESS:    2569194  HIT:     417638  MISS:    2151556  HIT %:    16.2556  MISS %:    83.7444   MPKI: 4.30667
L1D PREFETCH  ACCESS:    1023610  HIT:          0  MISS:    1023610  HIT %:          0  MISS %:        100   MPKI: 2.04891
L1D WRITEBACK ACCESS:          0  HIT:          0  MISS:          0  HIT %:       -nan  MISS %:       -nan   MPKI: 0
L1I TOTAL     ACCESS:   81755818  HIT:   81755818  MISS:          0  HIT %:        100  MISS %:          0   MPKI: 0
L1I LOAD      ACCESS:   81755818  HIT:   81755818  MISS:          0  HIT %:        100  MISS %:          0   MPKI: 0
L1I RFO       ACCESS:          0  HIT:          0  MISS:          0  HIT %:       -nan  MISS %:       -nan   MPKI: 0
L1I PREFETCH  ACCESS:          0  HIT:          0  MISS:          0  HIT %:       -nan  MISS %:       -nan   MPKI: 0
L1I WRITEBACK ACCESS:          0  HIT:          0  MISS:          0  HIT %:       -nan  MISS %:       -nan   MPKI: 0
L2C TOTAL     ACCESS:    5821840  HIT:    1926030  MISS:    3895810  HIT %:    33.0828  MISS %:    66.9172   MPKI: 7.79806
L2C LOAD      ACCESS:      28274  HIT:       4118  MISS:      24156  HIT %:    14.5646  MISS %:    85.4354   MPKI: 0.0483519
L2C RFO       ACCESS:    2151556  HIT:        100  MISS:    2151456  HIT %:  0.0046478  MISS %:    99.9954   MPKI: 4.30647
L2C PREFETCH  ACCESS:    1433998  HIT:         81  MISS:    1433917  HIT %: 0.00564854  MISS %:    99.9944   MPKI: 2.87021
L2C WRITEBACK ACCESS:    2151555  HIT:    1872600  MISS:     278955  HIT %:    87.0347  MISS %:    12.9653   MPKI: 0.558371
PSCL5 TOTAL     ACCESS:      56386  HIT:      56386  MISS:          0  HIT %:        100  MISS %:          0   MPKI: 0
PSCL5 LOAD      ACCESS:          0  HIT:          0  MISS:          0  HIT %:       -nan  MISS %:       -nan   MPKI: 0
PSCL5 RFO       ACCESS:          0  HIT:          0  MISS:          0  HIT %:       -nan  MISS %:       -nan   MPKI: 0
PSCL5 PREFETCH  ACCESS:          0  HIT:          0  MISS:          0  HIT %:       -nan  MISS %:       -nan   MPKI: 0
PSCL5 WRITEBACK ACCESS:          0  HIT:          0  MISS:          0  HIT %:       -nan  MISS %:       -nan   MPKI: 0
PSCL4 TOTAL     ACCESS:      56386  HIT:      56386  MISS:          0  HIT %:        100  MISS %:          0   MPKI: 0
PSCL4 LOAD      ACCESS:          0  HIT:          0  MISS:          0  HIT %:       -nan  MISS %:       -nan   MPKI: 0
PSCL4 RFO       ACCESS:          0  HIT:          0  MISS:          0  HIT %:       -nan  MISS %:       -nan   MPKI: 0
PSCL4 PREFETCH  ACCESS:          0  HIT:          0  MISS:          0  HIT %:       -nan  MISS %:       -nan   MPKI: 0
PSCL4 WRITEBACK ACCESS:          0  HIT:          0  MISS:          0  HIT %:       -nan  MISS %:       -nan   MPKI: 0
PSCL3 TOTAL     ACCESS:      56386  HIT:      56386  MISS:          0  HIT %:        100  MISS %:          0   MPKI: 0
PSCL3 LOAD      ACCESS:          0  HIT:          0  MISS:          0  HIT %:       -nan  MISS %:       -nan   MPKI: 0
PSCL3 RFO       ACCESS:          0  HIT:          0  MISS:          0  HIT %:       -nan  MISS %:       -nan   MPKI: 0
PSCL3 PREFETCH  ACCESS:          0  HIT:          0  MISS:          0  HIT %:       -nan  MISS %:       -nan   MPKI: 0
PSCL3 WRITEBACK ACCESS:          0  HIT:          0  MISS:          0  HIT %:       -nan  MISS %:       -nan   MPKI: 0
PSCL2 TOTAL     ACCESS:      56386  HIT:      56269  MISS:        117  HIT %:    99.7925  MISS %:   0.207498   MPKI: 0.000234193
PSCL2 LOAD      ACCESS:          0  HIT:          0  MISS:          0  HIT %:       -nan  MISS %:       -nan   MPKI: 0
PSCL2 RFO       ACCESS:          0  HIT:          0  MISS:          0  HIT %:       -nan  MISS %:       -nan   MPKI: 0
PSCL2 PREFETCH  ACCESS:          0  HIT:          0  MISS:          0  HIT %:       -nan  MISS %:       -nan   MPKI: 0
PSCL2 WRITEBACK ACCESS:          0  HIT:          0  MISS:          0  HIT %:       -nan  MISS %:       -nan   MPKI: 0
=== CPU 1 L1D Prefetcher Statistics ===
[MLOP] History of tracked zone:
IIIIIIIIIIIIIIIIIIIIIIIIIIIIIIIIIIIIIIIIIIIIIIIIIIIIIIIIIIIIIIII
A11IIIIIIIIIIIIIIIIIIIIIIIIIIIIIIIIIIIIIIIIIIIIIIIIIIIIIIIIIIIII
AA11IIIIIIIIIIIIIIIIIIIIIIIIIIIIIIIIIIIIIIIIIIIIIIIIIIIIIIIIIIII
AAA11IIIIIIIIIIIIIIIIIIIIIIIIIIIIIIIIIIIIIIIIIIIIIIIIIIIIIIIIIII
AAAA11IIIIIIIIIIIIIIIIIIIIIIIIIIIIIIIIIIIIIIIIIIIIIIIIIIIIIIIIII
AAAAA11IIIIIIIIIIIIIIIIIIIIIIIIIIIIIIIIIIIIIIIIIIIIIIIIIIIIIIIII
AAAAAA11IIIIIIIIIIIIIIIIIIIIIIIIIIIIIIIIIIIIIIIIIIIIIIIIIIIIIIII
AAAAAAA11IIIIIIIIIIIIIIIIIIIIIIIIIIIIIIIIIIIIIIIIIIIIIIIIIIIIIII
AAAAAAAA11IIIIIIIIIIIIIIIIIIIIIIIIIIIIIIIIIIIIIIIIIIIIIIIIIIIIII
AAAAAAAAA11IIIIIIIIIIIIIIIIIIIIIIIIIIIIIIIIIIIIIIIIIIIIIIIIIIIII
AAAAAAAAAA11IIIIIIIIIIIIIIIIIIIIIIIIIIIIIIIIIIIIIIIIIIIIIIIIIIII
AAAAAAAAAAA11IIIIIIIIIIIIIIIIIIIIIIIIIIIIIIIIIIIIIIIIIIIIIIIIIII
AAAAAAAAAAAA11IIIIIIIIIIIIIIIIIIIIIIIIIIIIIIIIIIIIIIIIIIIIIIIIII
AAAAAAAAAAAAA11IIIIIIIIIIIIIIIIIIIIIIIIIIIIIIIIIIIIIIIIIIIIIIIII
AAAAAAAAAAAAAA11IIIIIIIIIIIIIIIIIIIIIIIIIIIIIIIIIIIIIIIIIIIIIIII
AAAAAAAAAAAAAAA11IIIIIIIIIIIIIIIIIIIIIIIIIIIIIIIIIIIIIIIIIIIIIII
AAAAAAAAAAAAAAAA11IIIIIIIIIIIIIIIIIIIIIIIIIIIIIIIIIIIIIIIIIIIIII
AAAAAAAAAAAAAAAAA11IIIIIIIIIIIIIIIIIIIIIIIIIIIIIIIIIIIIIIIIIIIII
AAAAAAAAAAAAAAAAAA11IIIIIIIIIIIIIIIIIIIIIIIIIIIIIIIIIIIIIIIIIIII
AAAAAAAAAAAAAAAAAAA11IIIIIIIIIIIIIIIIIIIIIIIIIIIIIIIIIIIIIIIIIII
AAAAAAAAAAAAAAAAAAAA11IIIIIIIIIIIIIIIIIIIIIIIIIIIIIIIIIIIIIIIIII
AAAAAAAAAAAAAAAAAAAAA11IIIIIIIIIIIIIIIIIIIIIIIIIIIIIIIIIIIIIIIII
AAAAAAAAAAAAAAAAAAAAAA11IIIIIIIIIIIIIIIIIIIIIIIIIIIIIIIIIIIIIIII
AAAAAAAAAAAAAAAAAAAAAAA11IIIIIIIIIIIIIIIIIIIIIIIIIIIIIIIIIIIIIII
AAAAAAAAAAAAAAAAAAAAAAAA11IIIIIIIIIIIIIIIIIIIIIIIIIIIIIIIIIIIIII
AAAAAAAAAAAAAAAAAAAAAAAAA11IIIIIIIIIIIIIIIIIIIIIIIIIIIIIIIIIIIII
AAAAAAAAAAAAAAAAAAAAAAAAAA11IIIIIIIIIIIIIIIIIIIIIIIIIIIIIIIIIIII
AAAAAAAAAAAAAAAAAAAAAAAAAAA11IIIIIIIIIIIIIIIIIIIIIIIIIIIIIIIIIII
AAAAAAAAAAAAAAAAAAAAAAAAAAAA11IIIIIIIIIIIIIIIIIIIIIIIIIIIIIIIIII
AAAAAAAAAAAAAAAAAAAAAAAAAAAAA11IIIIIIIIIIIIIIIIIIIIIIIIIIIIIIIII
AAAAAAAAAAAAAAAAAAAAAAAAAAAAAA11IIIIIIIIIIIIIIIIIIIIIIIIIIIIIIII
AAAAAAAAAAAAAAAAAAAAAAAAAAAAAAA11IIIIIIIIIIIIIIIIIIIIIIIIIIIIIII
AAAAAAAAAAAAAAAAAAAAAAAAAAAAAAAA11IIIIIIIIIIIIIIIIIIIIIIIIIIIIII
AAAAAAAAAAAAAAAAAAAAAAAAAAAAAAAAA11IIIIIIIIIIIIIIIIIIIIIIIIIIIII
AAAAAAAAAAAAAAAAAAAAAAAAAAAAAAAAAA11IIIIIIIIIIIIIIIIIIIIIIIIIIII
AAAAAAAAAAAAAAAAAAAAAAAAAAAAAAAAAAA11IIIIIIIIIIIIIIIIIIIIIIIIIII
AAAAAAAAAAAAAAAAAAAAAAAAAAAAAAAAAAAA11IIIIIIIIIIIIIIIIIIIIIIIIII
AAAAAAAAAAAAAAAAAAAAAAAAAAAAAAAAAAAAA11IIIIIIIIIIIIIIIIIIIIIIIII
AAAAAAAAAAAAAAAAAAAAAAAAAAAAAAAAAAAAAA11IIIIIIIIIIIIIIIIIIIIIIII
AAAAAAAAAAAAAAAAAAAAAAAAAAAAAAAAAAAAAAA11IIIIIIIIIIIIIIIIIIIIIII
AAAAAAAAAAAAAAAAAAAAAAAAAAAAAAAAAAAAAAAA11IIIIIIIIIIIIIIIIIIIIII
AAAAAAAAAAAAAAAAAAAAAAAAAAAAAAAAAAAAAAAAA11IIIIIIIIIIIIIIIIIIIII
AAAAAAAAAAAAAAAAAAAAAAAAAAAAAAAAAAAAAAAAAA11IIIIIIIIIIIIIIIIIIII
AAAAAAAAAAAAAAAAAAAAAAAAAAAAAAAAAAAAAAAAAAA11IIIIIIIIIIIIIIIIIII
AAAAAAAAAAAAAAAAAAAAAAAAAAAAAAAAAAAAAAAAAAAA11IIIIIIIIIIIIIIIIII
AAAAAAAAAAAAAAAAAAAAAAAAAAAAAAAAAAAAAAAAAAAAA11IIIIIIIIIIIIIIIII
AAAAAAAAAAAAAAAAAAAAAAAAAAAAAAAAAAAAAAAAAAAAAA11IIIIIIIIIIIIIIII
AAAAAAAAAAAAAAAAAAAAAAAAAAAAAAAAAAAAAAAAAAAAAAA11IIIIIIIIIIIIIII
AAAAAAAAAAAAAAAAAAAAAAAAAAAAAAAAAAAAAAAAAAAAAAAA11IIIIIIIIIIIIII
AAAAAAAAAAAAAAAAAAAAAAAAAAAAAAAAAAAAAAAAAAAAAAAAA11IIIIIIIIIIIII
AAAAAAAAAAAAAAAAAAAAAAAAAAAAAAAAAAAAAAAAAAAAAAAAAA11IIIIIIIIIIII
AAAAAAAAAAAAAAAAAAAAAAAAAAAAAAAAAAAAAAAAAAAAAAAAAAA11IIIIIIIIIII
AAAAAAAAAAAAAAAAAAAAAAAAAAAAAAAAAAAAAAAAAAAAAAAAAAAA11IIIIIIIIII
AAAAAAAAAAAAAAAAAAAAAAAAAAAAAAAAAAAAAAAAAAAAAAAAAAAAA11IIIIIIIII
AAAAAAAAAAAAAAAAAAAAAAAAAAAAAAAAAAAAAAAAAAAAAAAAAAAAAA11IIIIIIII
AAAAAAAAAAAAAAAAAAAAAAAAAAAAAAAAAAAAAAAAAAAAAAAAAAAAAAA11IIIIIII
AAAAAAAAAAAAAAAAAAAAAAAAAAAAAAAAAAAAAAAAAAAAAAAAAAAAAAAA11IIIIII
AAAAAAAAAAAAAAAAAAAAAAAAAAAAAAAAAAAAAAAAAAAAAAAAAAAAAAAAA11IIIII
AAAAAAAAAAAAAAAAAAAAAAAAAAAAAAAAAAAAAAAAAAAAAAAAAAAAAAAAAA11IIII
AAAAAAAAAAAAAAAAAAAAAAAAAAAAAAAAAAAAAAAAAAAAAAAAAAAAAAAAAAA11III
AAAAAAAAAAAAAAAAAAAAAAAAAAAAAAAAAAAAAAAAAAAAAAAAAAAAAAAAAAAA11II
AAAAAAAAAAAAAAAAAAAAAAAAAAAAAAAAAAAAAAAAAAAAAAAAAAAAAAAAAAAAA11I
AAAAAAAAAAAAAAAAAAAAAAAAAAAAAAAAAAAAAAAAAAAAAAAAAAAAAAAAAAAAAA11
AAAAAAAAAAAAAAAAAAAAAAAAAAAAAAAAAAAAAAAAAAAAAAAAAAAAAAAAAAAAAAA1
AAAAAAAAAAAAAAAAAAAAAAAAAAAAAAAAAAAAAAAAAAAAAAAAAAAAAAAAAAAAAAAA
A111IIIIIIIIIIIIIIIIIIIIIIIIIIIIIIIIIIIIIIIIIIIIIIIIIIIIIIIIIIII
AA111IIIIIIIIIIIIIIIIIIIIIIIIIIIIIIIIIIIIIIIIIIIIIIIIIIIIIIIIIII
AAA111IIIIIIIIIIIIIIIIIIIIIIIIIIIIIIIIIIIIIIIIIIIIIIIIIIIIIIIIII
AAAA111IIIIIIIIIIIIIIIIIIIIIIIIIIIIIIIIIIIIIIIIIIIIIIIIIIIIIIIII
AAAAA111IIIIIIIIIIIIIIIIIIIIIIIIIIIIIIIIIIIIIIIIIIIIIIIIIIIIIIII
AAAAAA111IIIIIIIIIIIIIIIIIIIIIIIIIIIIIIIIIIIIIIIIIIIIIIIIIIIIIII
AAAAAAA111IIIIIIIIIIIIIIIIIIIIIIIIIIIIIIIIIIIIIIIIIIIIIIIIIIIIII
AAAAAAAA111IIIIIIIIIIIIIIIIIIIIIIIIIIIIIIIIIIIIIIIIIIIIIIIIIIIII
AAAAAAAAA111IIIIIIIIIIIIIIIIIIIIIIIIIIIIIIIIIIIIIIIIIIIIIIIIIIII
AAAAAAAAAA111IIIIIIIIIIIIIIIIIIIIIIIIIIIIIIIIIIIIIIIIIIIIIIIIIII
AAAAAAAAAAA111IIIIIIIIIIIIIIIIIIIIIIIIIIIIIIIIIIIIIIIIIIIIIIIIII
AAAAAAAAAAAA111IIIIIIIIIIIIIIIIIIIIIIIIIIIIIIIIIIIIIIIIIIIIIIIII
AAAAAAAAAAAAA111IIIIIIIIIIIIIIIIIIIIIIIIIIIIIIIIIIIIIIIIIIIIIIII
AAAAAAAAAAAAAA111IIIIIIIIIIIIIIIIIIIIIIIIIIIIIIIIIIIIIIIIIIIIIII
AAAAAAAAAAAAAAA111IIIIIIIIIIIIIIIIIIIIIIIIIIIIIIIIIIIIIIIIIIIIII
AAAAAAAAAAAAAAAA111IIIIIIIIIIIIIIIIIIIIIIIIIIIIIIIIIIIIIIIIIIIII
AAAAAAAAAAAAAAAAA111IIIIIIIIIIIIIIIIIIIIIIIIIIIIIIIIIIIIIIIIIIII
AAAAAAAAAAAAAAAAAA111IIIIIIIIIIIIIIIIIIIIIIIIIIIIIIIIIIIIIIIIIII
AAAAAAAAAAAAAAAAAAA111IIIIIIIIIIIIIIIIIIIIIIIIIIIIIIIIIIIIIIIIII
AAAAAAAAAAAAAAAAAAAA111IIIIIIIIIIIIIIIIIIIIIIIIIIIIIIIIIIIIIIIII
AAAAAAAAAAAAAAAAAAAAA111IIIIIIIIIIIIIIIIIIIIIIIIIIIIIIIIIIIIIIII
AAAAAAAAAAAAAAAAAAAAAA111IIIIIIIIIIIIIIIIIIIIIIIIIIIIIIIIIIIIIII
AAAAAAAAAAAAAAAAAAAAAAA111IIIIIIIIIIIIIIIIIIIIIIIIIIIIIIIIIIIIII
AAAAAAAAAAAAAAAAAAAAAAAA111IIIIIIIIIIIIIIIIIIIIIIIIIIIIIIIIIIIII
AAAAAAAAAAAAAAAAAAAAAAAAA111IIIIIIIIIIIIIIIIIIIIIIIIIIIIIIIIIIII
AAAAAAAAAAAAAAAAAAAAAAAAAA111IIIIIIIIIIIIIIIIIIIIIIIIIIIIIIIIIII
AAAAAAAAAAAAAAAAAAAAAAAAAAA111IIIIIIIIIIIIIIIIIIIIIIIIIIIIIIIIII
AAAAAAAAAAAAAAAAAAAAAAAAAAAA111IIIIIIIIIIIIIIIIIIIIIIIIIIIIIIIII
AAAAAAAAAAAAAAAAAAAAAAAAAAAAA111IIIIIIIIIIIIIIIIIIIIIIIIIIIIIIII
AAAAAAAAAAAAAAAAAAAAAAAAAAAAAA111IIIIIIIIIIIIIIIIIIIIIIIIIIIIIII
AAAAAAAAAAAAAAAAAAAAAAAAAAAAAAA111IIIIIIIIIIIIIIIIIIIIIIIIIIIIII
AAAAAAAAAAAAAAAAAAAAAAAAAAAAAAAA111IIIIIIIIIIIIIIIIIIIIIIIIIIIII
AAAAAAAAAAAAAAAAAAAAAAAAAAAAAAAAA111IIIIIIIIIIIIIIIIIIIIIIIIIIII
AAAAAAAAAAAAAAAAAAAAAAAAAAAAAAAAAA111IIIIIIIIIIIIIIIIIIIIIIIIIII
AAAAAAAAAAAAAAAAAAAAAAAAAAAAAAAAAAA111IIIIIIIIIIIIIIIIIIIIIIIIII
AAAAAAAAAAAAAAAAAAAAAAAAAAAAAAAAAAAA111IIIIIIIIIIIIIIIIIIIIIIIII
AAAAAAAAAAAAAAAAAAAAAAAAAAAAAAAAAAAAA111IIIIIIIIIIIIIIIIIIIIIIII
AAAAAAAAAAAAAAAAAAAAAAAAAAAAAAAAAAAAAA111IIIIIIIIIIIIIIIIIIIIIII
AAAAAAAAAAAAAAAAAAAAAAAAAAAAAAAAAAAAAAA111IIIIIIIIIIIIIIIIIIIIII
AAAAAAAAAAAAAAAAAAAAAAAAAAAAAAAAAAAAAAAA111IIIIIIIIIIIIIIIIIIIII
AAAAAAAAAAAAAAAAAAAAAAAAAAAAAAAAAAAAAAAAA111IIIIIIIIIIIIIIIIIIII
AAAAAAAAAAAAAAAAAAAAAAAAAAAAAAAAAAAAAAAAAA111IIIIIIIIIIIIIIIIIII
AAAAAAAAAAAAAAAAAAAAAAAAAAAAAAAAAAAAAAAAAAA111IIIIIIIIIIIIIIIIII
AAAAAAAAAAAAAAAAAAAAAAAAAAAAAAAAAAAAAAAAAAAA111IIIIIIIIIIIIIIIII
AAAAAAAAAAAAAAAAAAAAAAAAAAAAAAAAAAAAAAAAAAAAA111IIIIIIIIIIIIIIII
AAAAAAAAAAAAAAAAAAAAAAAAAAAAAAAAAAAAAAAAAAAAAA111IIIIIIIIIIIIIII
AAAAAAAAAAAAAAAAAAAAAAAAAAAAAAAAAAAAAAAAAAAAAAA111IIIIIIIIIIIIII
AAAAAAAAAAAAAAAAAAAAAAAAAAAAAAAAAAAAAAAAAAAAAAAA111IIIIIIIIIIIII
AAAAAAAAAAAAAAAAAAAAAAAAAAAAAAAAAAAAAAAAAAAAAAAAA111IIIIIIIIIIII
AAAAAAAAAAAAAAAAAAAAAAAAAAAAAAAAAAAAAAAAAAAAAAAAAA111IIIIIIIIIII
AAAAAAAAAAAAAAAAAAAAAAAAAAAAAAAAAAAAAAAAAAAAAAAAAAA111IIIIIIIIII
AAAAAAAAAAAAAAAAAAAAAAAAAAAAAAAAAAAAAAAAAAAAAAAAAAAA111IIIIIIIII
AAAAAAAAAAAAAAAAAAAAAAAAAAAAAAAAAAAAAAAAAAAAAAAAAAAAA111IIIIIIII
AAAAAAAAAAAAAAAAAAAAAAAAAAAAAAAAAAAAAAAAAAAAAAAAAAAAAA111IIIIIII
AAAAAAAAAAAAAAAAAAAAAAAAAAAAAAAAAAAAAAAAAAAAAAAAAAAAAAA111IIIIII
AAAAAAAAAAAAAAAAAAAAAAAAAAAAAAAAAAAAAAAAAAAAAAAAAAAAAAAA111IIIII
AAAAAAAAAAAAAAAAAAAAAAAAAAAAAAAAAAAAAAAAAAAAAAAAAAAAAAAAA111IIII
AAAAAAAAAAAAAAAAAAAAAAAAAAAAAAAAAAAAAAAAAAAAAAAAAAAAAAAAAA111III
AAAAAAAAAAAAAAAAAAAAAAAAAAAAAAAAAAAAAAAAAAAAAAAAAAAAAAAAAAA111II
AAAAAAAAAAAAAAAAAAAAAAAAAAAAAAAAAAAAAAAAAAAAAAAAAAAAAAAAAAAA111I
AAAAAAAAAAAAAAAAAAAAAAAAAAAAAAAAAAAAAAAAAAAAAAAAAAAAAAAAAAAAA111
AAAAAAAAAAAAAAAAAAAAAAAAAAAAAAAAAAAAAAAAAAAAAAAAAAAAAAAAAAAAAA11
AAAAAAAAAAAAAAAAAAAAAAAAAAAAAAAAAAAAAAAAAAAAAAAAAAAAAAAAAAAAAAA1
AAAAAAAAAAAAAAAAAAAAAAAAAAAAAAAAAAAAAAAAAAAAAAAAAAAAAAAAAAAAAAAA
A111IIIIIIIIIIIIIIIIIIIIIIIIIIIIIIIIIIIIIIIIIIIIIIIIIIIIIIIIIIII
AA111IIIIIIIIIIIIIIIIIIIIIIIIIIIIIIIIIIIIIIIIIIIIIIIIIIIIIIIIIII
AAA111IIIIIIIIIIIIIIIIIIIIIIIIIIIIIIIIIIIIIIIIIIIIIIIIIIIIIIIIII
AAAA111IIIIIIIIIIIIIIIIIIIIIIIIIIIIIIIIIIIIIIIIIIIIIIIIIIIIIIIII
AAAAA111IIIIIIIIIIIIIIIIIIIIIIIIIIIIIIIIIIIIIIIIIIIIIIIIIIIIIIII
AAAAAA111IIIIIIIIIIIIIIIIIIIIIIIIIIIIIIIIIIIIIIIIIIIIIIIIIIIIIII
AAAAAAA111IIIIIIIIIIIIIIIIIIIIIIIIIIIIIIIIIIIIIIIIIIIIIIIIIIIIII
AAAAAAAA111IIIIIIIIIIIIIIIIIIIIIIIIIIIIIIIIIIIIIIIIIIIIIIIIIIIII
AAAAAAAAA111IIIIIIIIIIIIIIIIIIIIIIIIIIIIIIIIIIIIIIIIIIIIIIIIIIII
AAAAAAAAAA111IIIIIIIIIIIIIIIIIIIIIIIIIIIIIIIIIIIIIIIIIIIIIIIIIII
AAAAAAAAAAA111IIIIIIIIIIIIIIIIIIIIIIIIIIIIIIIIIIIIIIIIIIIIIIIIII
AAAAAAAAAAAA111IIIIIIIIIIIIIIIIIIIIIIIIIIIIIIIIIIIIIIIIIIIIIIIII
AAAAAAAAAAAAA111IIIIIIIIIIIIIIIIIIIIIIIIIIIIIIIIIIIIIIIIIIIIIIII
AAAAAAAAAAAAAA111IIIIIIIIIIIIIIIIIIIIIIIIIIIIIIIIIIIIIIIIIIIIIII
AAAAAAAAAAAAAAA111IIIIIIIIIIIIIIIIIIIIIIIIIIIIIIIIIIIIIIIIIIIIII
AAAAAAAAAAAAAAAA111IIIIIIIIIIIIIIIIIIIIIIIIIIIIIIIIIIIIIIIIIIIII
AAAAAAAAAAAAAAAAA111IIIIIIIIIIIIIIIIIIIIIIIIIIIIIIIIIIIIIIIIIIII
AAAAAAAAAAAAAAAAAA111IIIIIIIIIIIIIIIIIIIIIIIIIIIIIIIIIIIIIIIIIII
AAAAAAAAAAAAAAAAAAA111IIIIIIIIIIIIIIIIIIIIIIIIIIIIIIIIIIIIIIIIII
AAAAAAAAAAAAAAAAAAAA111IIIIIIIIIIIIIIIIIIIIIIIIIIIIIIIIIIIIIIIII
AAAAAAAAAAAAAAAAAAAAA111IIIIIIIIIIIIIIIIIIIIIIIIIIIIIIIIIIIIIIII
AAAAAAAAAAAAAAAAAAAAAA111IIIIIIIIIIIIIIIIIIIIIIIIIIIIIIIIIIIIIII
AAAAAAAAAAAAAAAAAAAAAAA111IIIIIIIIIIIIIIIIIIIIIIIIIIIIIIIIIIIIII
AAAAAAAAAAAAAAAAAAAAAAAA111IIIIIIIIIIIIIIIIIIIIIIIIIIIIIIIIIIIII
AAAAAAAAAAAAAAAAAAAAAAAAA111IIIIIIIIIIIIIIIIIIIIIIIIIIIIIIIIIIII
AAAAAAAAAAAAAAAAAAAAAAAAAA111IIIIIIIIIIIIIIIIIIIIIIIIIIIIIIIIIII
AAAAAAAAAAAAAAAAAAAAAAAAAAA111IIIIIIIIIIIIIIIIIIIIIIIIIIIIIIIIII
AAAAAAAAAAAAAAAAAAAAAAAAAAAA111IIIIIIIIIIIIIIIIIIIIIIIIIIIIIIIII
AAAAAAAAAAAAAAAAAAAAAAAAAAAAA111IIIIIIIIIIIIIIIIIIIIIIIIIIIIIIII
AAAAAAAAAAAAAAAAAAAAAAAAAAAAAA111IIIIIIIIIIIIIIIIIIIIIIIIIIIIIII
AAAAAAAAAAAAAAAAAAAAAAAAAAAAAAA111IIIIIIIIIIIIIIIIIIIIIIIIIIIIII
AAAAAAAAAAAAAAAAAAAAAAAAAAAAAAAA111IIIIIIIIIIIIIIIIIIIIIIIIIIIII
AAAAAAAAAAAAAAAAAAAAAAAAAAAAAAAAA111IIIIIIIIIIIIIIIIIIIIIIIIIIII
AAAAAAAAAAAAAAAAAAAAAAAAAAAAAAAAAA111IIIIIIIIIIIIIIIIIIIIIIIIIII
AAAAAAAAAAAAAAAAAAAAAAAAAAAAAAAAAAA111IIIIIIIIIIIIIIIIIIIIIIIIII
AAAAAAAAAAAAAAAAAAAAAAAAAAAAAAAAAAAA111IIIIIIIIIIIIIIIIIIIIIIIII
AAAAAAAAAAAAAAAAAAAAAAAAAAAAAAAAAAAAA111IIIIIIIIIIIIIIIIIIIIIIII
AAAAAAAAAAAAAAAAAAAAAAAAAAAAAAAAAAAAAA111IIIIIIIIIIIIIIIIIIIIIII
AAAAAAAAAAAAAAAAAAAAAAAAAAAAAAAAAAAAAAA111IIIIIIIIIIIIIIIIIIIIII
AAAAAAAAAAAAAAAAAAAAAAAAAAAAAAAAAAAAAAAA111IIIIIIIIIIIIIIIIIIIII
AAAAAAAAAAAAAAAAAAAAAAAAAAAAAAAAAAAAAAAAA111IIIIIIIIIIIIIIIIIIII
AAAAAAAAAAAAAAAAAAAAAAAAAAAAAAAAAAAAAAAAAA111IIIIIIIIIIIIIIIIIII
AAAAAAAAAAAAAAAAAAAAAAAAAAAAAAAAAAAAAAAAAAA111IIIIIIIIIIIIIIIIII
AAAAAAAAAAAAAAAAAAAAAAAAAAAAAAAAAAAAAAAAAAAA111IIIIIIIIIIIIIIIII
AAAAAAAAAAAAAAAAAAAAAAAAAAAAAAAAAAAAAAAAAAAAA111IIIIIIIIIIIIIIII
AAAAAAAAAAAAAAAAAAAAAAAAAAAAAAAAAAAAAAAAAAAAAA111IIIIIIIIIIIIIII
AAAAAAAAAAAAAAAAAAAAAAAAAAAAAAAAAAAAAAAAAAAAAAA111IIIIIIIIIIIIII
AAAAAAAAAAAAAAAAAAAAAAAAAAAAAAAAAAAAAAAAAAAAAAAA111IIIIIIIIIIIII
AAAAAAAAAAAAAAAAAAAAAAAAAAAAAAAAAAAAAAAAAAAAAAAAA111IIIIIIIIIIII
AAAAAAAAAAAAAAAAAAAAAAAAAAAAAAAAAAAAAAAAAAAAAAAAAA111IIIIIIIIIII
AAAAAAAAAAAAAAAAAAAAAAAAAAAAAAAAAAAAAAAAAAAAAAAAAAA111IIIIIIIIII
AAAAAAAAAAAAAAAAAAAAAAAAAAAAAAAAAAAAAAAAAAAAAAAAAAAA111IIIIIIIII
AAAAAAAAAAAAAAAAAAAAAAAAAAAAAAAAAAAAAAAAAAAAAAAAAAAAA111IIIIIIII
AAAAAAAAAAAAAAAAAAAAAAAAAAAAAAAAAAAAAAAAAAAAAAAAAAAAAA111IIIIIII
AAAAAAAAAAAAAAAAAAAAAAAAAAAAAAAAAAAAAAAAAAAAAAAAAAAAAAA111IIIIII
AAAAAAAAAAAAAAAAAAAAAAAAAAAAAAAAAAAAAAAAAAAAAAAAAAAAAAAA111IIIII
AAAAAAAAAAAAAAAAAAAAAAAAAAAAAAAAAAAAAAAAAAAAAAAAAAAAAAAAA111IIII
AAAAAAAAAAAAAAAAAAAAAAAAAAAAAAAAAAAAAAAAAAAAAAAAAAAAAAAAAA111III
AAAAAAAAAAAAAAAAAAAAAAAAAAAAAAAAAAAAAAAAAAAAAAAAAAAAAAAAAAA111II
AAAAAAAAAAAAAAAAAAAAAAAAAAAAAAAAAAAAAAAAAAAAAAAAAAAAAAAAAAAA111I
AAAAAAAAAAAAAAAAAAAAAAAAAAAAAAAAAAAAAAAAAAAAAAAAAAAAAAAAAAAAA111
AAAAAAAAAAAAAAAAAAAAAAAAAAAAAAAAAAAAAAAAAAAAAAAAAAAAAAAAAAAAAA11
AAAAAAAAAAAAAAAAAAAAAAAAAAAAAAAAAAAAAAAAAAAAAAAAAAAAAAAAAAAAAAA1
AAAAAAAAAAAAAAAAAAAAAAAAAAAAAAAAAAAAAAAAAAAAAAAAAAAAAAAAAAAAAAAA
[MLOP] Prefetch Degree Mean: 2.79112
[MLOP] Prefetch Degree SD: 0.479664
[MLOP] Max Score Left Mean (%): 97.3604
[MLOP] Max Score Left SD (%): 0.892824
[MLOP] Max Score Right Mean (%): 100
[MLOP] Max Score Right SD (%): 0
LLC TOTAL     ACCESS:    5768298  HIT:    1867709  MISS:    3900589  HIT %:    32.3789  MISS %:    67.6211   MPKI: 7.80763
LLC LOAD      ACCESS:      24156  HIT:       1388  MISS:      22768  HIT %:    5.74598  MISS %:     94.254   MPKI: 0.0455737
LLC RFO       ACCESS:    2151456  HIT:          0  MISS:    2151456  HIT %:          0  MISS %:        100   MPKI: 4.30647
LLC PREFETCH  ACCESS:    1433917  HIT:          0  MISS:    1433917  HIT %:          0  MISS %:        100   MPKI: 2.87021
LLC WRITEBACK ACCESS:    2151443  HIT:    1866240  MISS:     285203  HIT %:    86.7436  MISS %:    13.2564   MPKI: 0.570878

RAW hits: 0
Loads Generated: 93005191
Loads sent to L1D: 93005190
Stores Generated: 17212459
Stores sent to L1D: 17212459

CPU 2 cumulative IPC: 0.310698 instructions: 252348012 cycles: 812196088
ITLB TOTAL     ACCESS:   46414688  HIT:   46414660  MISS:         28  HIT %:    99.9999  MISS %: 6.03257e-05   MPKI: 0.000110958
ITLB LOAD      ACCESS:          0  HIT:          0  MISS:          0  HIT %:       -nan  MISS %:       -nan   MPKI: 0
ITLB RFO       ACCESS:          0  HIT:          0  MISS:          0  HIT %:       -nan  MISS %:       -nan   MPKI: 0
ITLB PREFETCH  ACCESS:          0  HIT:          0  MISS:          0  HIT %:       -nan  MISS %:       -nan   MPKI: 0
ITLB WRITEBACK ACCESS:          0  HIT:          0  MISS:          0  HIT %:       -nan  MISS %:       -nan   MPKI: 0
DTLB TOTAL     ACCESS:   32999593  HIT:   32887502  MISS:     112091  HIT %:    99.6603  MISS %:   0.339674   MPKI: 0.444192
DTLB LOAD      ACCESS:          0  HIT:          0  MISS:          0  HIT %:       -nan  MISS %:       -nan   MPKI: 0
DTLB RFO       ACCESS:          0  HIT:          0  MISS:          0  HIT %:       -nan  MISS %:       -nan   MPKI: 0
DTLB PREFETCH  ACCESS:          0  HIT:          0  MISS:          0  HIT %:       -nan  MISS %:       -nan   MPKI: 0
DTLB WRITEBACK ACCESS:          0  HIT:          0  MISS:          0  HIT %:       -nan  MISS %:       -nan   MPKI: 0
STLB TOTAL     ACCESS:    1005616  HIT:     893505  MISS:     112111  HIT %:    88.8515  MISS %:    11.1485   MPKI: 0.444271
STLB LOAD      ACCESS:          0  HIT:          0  MISS:          0  HIT %:       -nan  MISS %:       -nan   MPKI: 0
STLB RFO       ACCESS:          0  HIT:          0  MISS:          0  HIT %:       -nan  MISS %:       -nan   MPKI: 0
STLB PREFETCH  ACCESS:          0  HIT:          0  MISS:          0  HIT %:       -nan  MISS %:       -nan   MPKI: 0
STLB WRITEBACK ACCESS:          0  HIT:          0  MISS:          0  HIT %:       -nan  MISS %:       -nan   MPKI: 0
L1D TOTAL     ACCESS:   31213226  HIT:   24042430  MISS:    7170796  HIT %:    77.0264  MISS %:    22.9736   MPKI: 28.4163
L1D LOAD      ACCESS:   18095579  HIT:   16472523  MISS:    1623056  HIT %:    91.0306  MISS %:    8.96935   MPKI: 6.43182
L1D RFO       ACCESS:   11095878  HIT:    7569891  MISS:    3525987  HIT %:    68.2226  MISS %:    31.7774   MPKI: 13.9727
L1D PREFETCH  ACCESS:    2021769  HIT:         16  MISS:    2021753  HIT %: 0.000791386  MISS %:    99.9992   MPKI: 8.01177
L1D WRITEBACK ACCESS:          0  HIT:          0  MISS:          0  HIT %:       -nan  MISS %:       -nan   MPKI: 0
L1I TOTAL     ACCESS:   48201342  HIT:   48201186  MISS:        156  HIT %:    99.9997  MISS %: 0.000323642   MPKI: 0.000618194
L1I LOAD      ACCESS:   48201342  HIT:   48201186  MISS:        156  HIT %:    99.9997  MISS %: 0.000323642   MPKI: 0.000618194
L1I RFO       ACCESS:          0  HIT:          0  MISS:          0  HIT %:       -nan  MISS %:       -nan   MPKI: 0
L1I PREFETCH  ACCESS:          0  HIT:          0  MISS:          0  HIT %:       -nan  MISS %:       -nan   MPKI: 0
L1I WRITEBACK ACCESS:          0  HIT:          0  MISS:          0  HIT %:       -nan  MISS %:       -nan   MPKI: 0
L2C TOTAL     ACCESS:   10809213  HIT:    3231133  MISS:    7578080  HIT %:    29.8924  MISS %:    70.1076   MPKI: 30.0303
L2C LOAD      ACCESS:     335304  HIT:         22  MISS:     335282  HIT %: 0.00656121  MISS %:    99.9934   MPKI: 1.32865
L2C RFO       ACCESS:    3525987  HIT:         41  MISS:    3525946  HIT %: 0.00116279  MISS %:    99.9988   MPKI: 13.9726
L2C PREFETCH  ACCESS:    3309661  HIT:         26  MISS:    3309635  HIT %: 0.000785579  MISS %:    99.9992   MPKI: 13.1154
L2C WRITEBACK ACCESS:    3526016  HIT:    3133180  MISS:     392836  HIT %:    88.8589  MISS %:    11.1411   MPKI: 1.55672
PSCL5 TOTAL     ACCESS:     112111  HIT:     112111  MISS:          0  HIT %:        100  MISS %:          0   MPKI: 0
PSCL5 LOAD      ACCESS:          0  HIT:          0  MISS:          0  HIT %:       -nan  MISS %:       -nan   MPKI: 0
PSCL5 RFO       ACCESS:          0  HIT:          0  MISS:          0  HIT %:       -nan  MISS %:       -nan   MPKI: 0
PSCL5 PREFETCH  ACCESS:          0  HIT:          0  MISS:          0  HIT %:       -nan  MISS %:       -nan   MPKI: 0
PSCL5 WRITEBACK ACCESS:          0  HIT:          0  MISS:          0  HIT %:       -nan  MISS %:       -nan   MPKI: 0
PSCL4 TOTAL     ACCESS:     112111  HIT:     112110  MISS:          1  HIT %:    99.9991  MISS %: 0.000891973   MPKI: 3.96278e-06
PSCL4 LOAD      ACCESS:          0  HIT:          0  MISS:          0  HIT %:       -nan  MISS %:       -nan   MPKI: 0
[...]
AAAAAAAAAAAA111IIIIIIIIIIIIIIIIIIIIIIIIIIIIIIIIIIIIIIIIIIIIIIIII
AAAAAAAAAAAAA111IIIIIIIIIIIIIIIIIIIIIIIIIIIIIIIIIIIIIIIIIIIIIIII
AAAAAAAAAAAAAA111IIIIIIIIIIIIIIIIIIIIIIIIIIIIIIIIIIIIIIIIIIIIIII
AAAAAAAAAAAAAAA111IIIIIIIIIIIIIIIIIIIIIIIIIIIIIIIIIIIIIIIIIIIIII
AAAAAAAAAAAAAAAA111IIIIIIIIIIIIIIIIIIIIIIIIIIIIIIIIIIIIIIIIIIIII
AAAAAAAAAAAAAAAAA111IIIIIIIIIIIIIIIIIIIIIIIIIIIIIIIIIIIIIIIIIIII
AAAAAAAAAAAAAAAAAA111IIIIIIIIIIIIIIIIIIIIIIIIIIIIIIIIIIIIIIIIIII
AAAAAAAAAAAAAAAAAAA111IIIIIIIIIIIIIIIIIIIIIIIIIIIIIIIIIIIIIIIIII
AAAAAAAAAAAAAAAAAAAA111IIIIIIIIIIIIIIIIIIIIIIIIIIIIIIIIIIIIIIIII
AAAAAAAAAAAAAAAAAAAAA111IIIIIIIIIIIIIIIIIIIIIIIIIIIIIIIIIIIIIIII
AAAAAAAAAAAAAAAAAAAAAA111IIIIIIIIIIIIIIIIIIIIIIIIIIIIIIIIIIIIIII
AAAAAAAAAAAAAAAAAAAAAAA111IIIIIIIIIIIIIIIIIIIIIIIIIIIIIIIIIIIIII
AAAAAAAAAAAAAAAAAAAAAAAA111IIIIIIIIIIIIIIIIIIIIIIIIIIIIIIIIIIIII
AAAAAAAAAAAAAAAAAAAAAAAAA111IIIIIIIIIIIIIIIIIIIIIIIIIIIIIIIIIIII
AAAAAAAAAAAAAAAAAAAAAAAAAA111IIIIIIIIIIIIIIIIIIIIIIIIIIIIIIIIIII
AAAAAAAAAAAAAAAAAAAAAAAAAAA111IIIIIIIIIIIIIIIIIIIIIIIIIIIIIIIIII
AAAAAAAAAAAAAAAAAAAAAAAAAAAA111IIIIIIIIIIIIIIIIIIIIIIIIIIIIIIIII
AAAAAAAAAAAAAAAAAAAAAAAAAAAAA111IIIIIIIIIIIIIIIIIIIIIIIIIIIIIIII
AAAAAAAAAAAAAAAAAAAAAAAAAAAAAA111IIIIIIIIIIIIIIIIIIIIIIIIIIIIIII
AAAAAAAAAAAAAAAAAAAAAAAAAAAAAAA111IIIIIIIIIIIIIIIIIIIIIIIIIIIIII
AAAAAAAAAAAAAAAAAAAAAAAAAAAAAAAA111IIIIIIIIIIIIIIIIIIIIIIIIIIIII
AAAAAAAAAAAAAAAAAAAAAAAAAAAAAAAAA111IIIIIIIIIIIIIIIIIIIIIIIIIIII
AAAAAAAAAAAAAAAAAAAAAAAAAAAAAAAAAA111IIIIIIIIIIIIIIIIIIIIIIIIIII
AAAAAAAAAAAAAAAAAAAAAAAAAAAAAAAAAAA111IIIIIIIIIIIIIIIIIIIIIIIIII
AAAAAAAAAAAAAAAAAAAAAAAAAAAAAAAAAAAA111IIIIIIIIIIIIIIIIIIIIIIIII
AAAAAAAAAAAAAAAAAAAAAAAAAAAAAAAAAAAAA111IIIIIIIIIIIIIIIIIIIIIIII
AAAAAAAAAAAAAAAAAAAAAAAAAAAAAAAAAAAAAA111IIIIIIIIIIIIIIIIIIIIIII
AAAAAAAAAAAAAAAAAAAAAAAAAAAAAAAAAAAAAAA111IIIIIIIIIIIIIIIIIIIIII
AAAAAAAAAAAAAAAAAAAAAAAAAAAAAAAAAAAAAAAA111IIIIIIIIIIIIIIIIIIIII
AAAAAAAAAAAAAAAAAAAAAAAAAAAAAAAAAAAAAAAAA111IIIIIIIIIIIIIIIIIIII
AAAAAAAAAAAAAAAAAAAAAAAAAAAAAAAAAAAAAAAAAA111IIIIIIIIIIIIIIIIIII
AAAAAAAAAAAAAAAAAAAAAAAAAAAAAAAAAAAAAAAAAAA111IIIIIIIIIIIIIIIIII
AAAAAAAAAAAAAAAAAAAAAAAAAAAAAAAAAAAAAAAAAAAA111IIIIIIIIIIIIIIIII
AAAAAAAAAAAAAAAAAAAAAAAAAAAAAAAAAAAAAAAAAAAAA111IIIIIIIIIIIIIIII
AAAAAAAAAAAAAAAAAAAAAAAAAAAAAAAAAAAAAAAAAAAAAA111IIIIIIIIIIIIIII
AAAAAAAAAAAAAAAAAAAAAAAAAAAAAAAAAAAAAAAAAAAAAAA111IIIIIIIIIIIIII
AAAAAAAAAAAAAAAAAAAAAAAAAAAAAAAAAAAAAAAAAAAAAAAA111IIIIIIIIIIIII
AAAAAAAAAAAAAAAAAAAAAAAAAAAAAAAAAAAAAAAAAAAAAAAAA111IIIIIIIIIIII
AAAAAAAAAAAAAAAAAAAAAAAAAAAAAAAAAAAAAAAAAAAAAAAAAA111IIIIIIIIIII
AAAAAAAAAAAAAAAAAAAAAAAAAAAAAAAAAAAAAAAAAAAAAAAAAAA111IIIIIIIIII
AAAAAAAAAAAAAAAAAAAAAAAAAAAAAAAAAAAAAAAAAAAAAAAAAAAA111IIIIIIIII
AAAAAAAAAAAAAAAAAAAAAAAAAAAAAAAAAAAAAAAAAAAAAAAAAAAAA111IIIIIIII
AAAAAAAAAAAAAAAAAAAAAAAAAAAAAAAAAAAAAAAAAAAAAAAAAAAAAA111IIIIIII
AAAAAAAAAAAAAAAAAAAAAAAAAAAAAAAAAAAAAAAAAAAAAAAAAAAAAAA111IIIIII
AAAAAAAAAAAAAAAAAAAAAAAAAAAAAAAAAAAAAAAAAAAAAAAAAAAAAAAA111IIIII
AAAAAAAAAAAAAAAAAAAAAAAAAAAAAAAAAAAAAAAAAAAAAAAAAAAAAAAAA111IIII
AAAAAAAAAAAAAAAAAAAAAAAAAAAAAAAAAAAAAAAAAAAAAAAAAAAAAAAAAA111III
AAAAAAAAAAAAAAAAAAAAAAAAAAAAAAAAAAAAAAAAAAAAAAAAAAAAAAAAAAA111II
AAAAAAAAAAAAAAAAAAAAAAAAAAAAAAAAAAAAAAAAAAAAAAAAAAAAAAAAAAAA111I
AAAAAAAAAAAAAAAAAAAAAAAAAAAAAAAAAAAAAAAAAAAAAAAAAAAAAAAAAAAAA111
AAAAAAAAAAAAAAAAAAAAAAAAAAAAAAAAAAAAAAAAAAAAAAAAAAAAAAAAAAAAAA11
AAAAAAAAAAAAAAAAAAAAAAAAAAAAAAAAAAAAAAAAAAAAAAAAAAAAAAAAAAAAAAA1
AAAAAAAAAAAAAAAAAAAAAAAAAAAAAAAAAAAAAAAAAAAAAAAAAAAAAAAAAAAAAAAA
[MLOP] Prefetch Degree Mean: 2.79112
[MLOP] Prefetch Degree SD: 0.479664
[MLOP] Max Score Left Mean (%): 97.3604
[MLOP] Max Score Left SD (%): 0.892824
[MLOP] Max Score Right Mean (%): 100
[MLOP] Max Score Right SD (%): 0
=== CPU 2 L1D Prefetcher Statistics ===
[MLOP] History of tracked zone:
IIIIIIIIIIIIIIIIIIIIIIIIIIIIIIIIIIIIIIIIIIIIIIIIIIIIIIIIIIIIIIII
A111111IIIIIIIIIIIIIIIIIIIIIIIIIIIIIIIIIIIIIIIIIIIIIIIIIIIIIIIII
AA111111IIIIIIIIIIIIIIIIIIIIIIIIIIIIIIIIIIIIIIIIIIIIIIIIIIIIIIII
AAA111111IIIIIIIIIIIIIIIIIIIIIIIIIIIIIIIIIIIIIIIIIIIIIIIIIIIIIII
AAAA111111IIIIIIIIIIIIIIIIIIIIIIIIIIIIIIIIIIIIIIIIIIIIIIIIIIIIII
AAAAA111111IIIIIIIIIIIIIIIIIIIIIIIIIIIIIIIIIIIIIIIIIIIIIIIIIIIII
AAAAAA111111IIIIIIIIIIIIIIIIIIIIIIIIIIIIIIIIIIIIIIIIIIIIIIIIIIII
AAAAAAA111111IIIIIIIIIIIIIIIIIIIIIIIIIIIIIIIIIIIIIIIIIIIIIIIIIII
AAAAAAAA111111IIIIIIIIIIIIIIIIIIIIIIIIIIIIIIIIIIIIIIIIIIIIIIIIII
AAAAAAAAA111111IIIIIIIIIIIIIIIIIIIIIIIIIIIIIIIIIIIIIIIIIIIIIIIII
AAAAAAAAAA111111IIIIIIIIIIIIIIIIIIIIIIIIIIIIIIIIIIIIIIIIIIIIIIII
AAAAAAAAAAA111111IIIIIIIIIIIIIIIIIIIIIIIIIIIIIIIIIIIIIIIIIIIIIII
AAAAAAAAAAAA111111IIIIIIIIIIIIIIIIIIIIIIIIIIIIIIIIIIIIIIIIIIIIII
AAAAAAAAAAAAA111111IIIIIIIIIIIIIIIIIIIIIIIIIIIIIIIIIIIIIIIIIIIII
AAAAAAAAAAAAAA111111IIIIIIIIIIIIIIIIIIIIIIIIIIIIIIIIIIIIIIIIIIII
AAAAAAAAAAAAAAA111111IIIIIIIIIIIIIIIIIIIIIIIIIIIIIIIIIIIIIIIIIII
AAAAAAAAAAAAAAAA111111IIIIIIIIIIIIIIIIIIIIIIIIIIIIIIIIIIIIIIIIII
AAAAAAAAAAAAAAAAA111111IIIIIIIIIIIIIIIIIIIIIIIIIIIIIIIIIIIIIIIII
AAAAAAAAAAAAAAAAAA111111IIIIIIIIIIIIIIIIIIIIIIIIIIIIIIIIIIIIIIII
AAAAAAAAAAAAAAAAAAA111111IIIIIIIIIIIIIIIIIIIIIIIIIIIIIIIIIIIIIII
AAAAAAAAAAAAAAAAAAAA111111IIIIIIIIIIIIIIIIIIIIIIIIIIIIIIIIIIIIII
AAAAAAAAAAAAAAAAAAAAA111111IIIIIIIIIIIIIIIIIIIIIIIIIIIIIIIIIIIII
AAAAAAAAAAAAAAAAAAAAAA111111IIIIIIIIIIIIIIIIIIIIIIIIIIIIIIIIIIII
AAAAAAAAAAAAAAAAAAAAAAA111111IIIIIIIIIIIIIIIIIIIIIIIIIIIIIIIIIII
AAAAAAAAAAAAAAAAAAAAAAAA111111IIIIIIIIIIIIIIIIIIIIIIIIIIIIIIIIII
AAAAAAAAAAAAAAAAAAAAAAAAA111111IIIIIIIIIIIIIIIIIIIIIIIIIIIIIIIII
AAAAAAAAAAAAAAAAAAAAAAAAAA111111IIIIIIIIIIIIIIIIIIIIIIIIIIIIIIII
AAAAAAAAAAAAAAAAAAAAAAAAAAA111111IIIIIIIIIIIIIIIIIIIIIIIIIIIIIII
AAAAAAAAAAAAAAAAAAAAAAAAAAAA111111IIIIIIIIIIIIIIIIIIIIIIIIIIIIII
AAAAAAAAAAAAAAAAAAAAAAAAAAAAA111111IIIIIIIIIIIIIIIIIIIIIIIIIIIII
AAAAAAAAAAAAAAAAAAAAAAAAAAAAAA111111IIIIIIIIIIIIIIIIIIIIIIIIIIII
AAAAAAAAAAAAAAAAAAAAAAAAAAAAAAA111111IIIIIIIIIIIIIIIIIIIIIIIIIII
AAAAAAAAAAAAAAAAAAAAAAAAAAAAAAAA111111IIIIIIIIIIIIIIIIIIIIIIIIII
AAAAAAAAAAAAAAAAAAAAAAAAAAAAAAAAA111111IIIIIIIIIIIIIIIIIIIIIIIII
AAAAAAAAAAAAAAAAAAAAAAAAAAAAAAAAAA111111IIIIIIIIIIIIIIIIIIIIIIII
AAAAAAAAAAAAAAAAAAAAAAAAAAAAAAAAAAA111111IIIIIIIIIIIIIIIIIIIIIII
AAAAAAAAAAAAAAAAAAAAAAAAAAAAAAAAAAAA111111IIIIIIIIIIIIIIIIIIIIII
AAAAAAAAAAAAAAAAAAAAAAAAAAAAAAAAAAAAA111111IIIIIIIIIIIIIIIIIIIII
AAAAAAAAAAAAAAAAAAAAAAAAAAAAAAAAAAAAAA111111IIIIIIIIIIIIIIIIIIII
AAAAAAAAAAAAAAAAAAAAAAAAAAAAAAAAAAAAAAA111111IIIIIIIIIIIIIIIIIII
AAAAAAAAAAAAAAAAAAAAAAAAAAAAAAAAAAAAAAAA111111IIIIIIIIIIIIIIIIII
AAAAAAAAAAAAAAAAAAAAAAAAAAAAAAAAAAAAAAAAA111111IIIIIIIIIIIIIIIII
AAAAAAAAAAAAAAAAAAAAAAAAAAAAAAAAAAAAAAAAAA111111IIIIIIIIIIIIIIII
AAAAAAAAAAAAAAAAAAAAAAAAAAAAAAAAAAAAAAAAAAA111111IIIIIIIIIIIIIII
AAAAAAAAAAAAAAAAAAAAAAAAAAAAAAAAAAAAAAAAAAAA111111IIIIIIIIIIIIII
AAAAAAAAAAAAAAAAAAAAAAAAAAAAAAAAAAAAAAAAAAAAA111111IIIIIIIIIIIII
AAAAAAAAAAAAAAAAAAAAAAAAAAAAAAAAAAAAAAAAAAAAAA111111IIIIIIIIIIII
AAAAAAAAAAAAAAAAAAAAAAAAAAAAAAAAAAAAAAAAAAAAAAA111111IIIIIIIIIII
AAAAAAAAAAAAAAAAAAAAAAAAAAAAAAAAAAAAAAAAAAAAAAAA111111IIIIIIIIII
AAAAAAAAAAAAAAAAAAAAAAAAAAAAAAAAAAAAAAAAAAAAAAAAA111111IIIIIIIII
AAAAAAAAAAAAAAAAAAAAAAAAAAAAAAAAAAAAAAAAAAAAAAAAAA111111IIIIIIII
AAAAAAAAAAAAAAAAAAAAAAAAAAAAAAAAAAAAAAAAAAAAAAAAAAA111111IIIIIII
AAAAAAAAAAAAAAAAAAAAAAAAAAAAAAAAAAAAAAAAAAAAAAAAAAAA111111IIIIII
AAAAAAAAAAAAAAAAAAAAAAAAAAAAAAAAAAAAAAAAAAAAAAAAAAAAA111111IIIII
AAAAAAAAAAAAAAAAAAAAAAAAAAAAAAAAAAAAAAAAAAAAAAAAAAAAAA111111IIII
AAAAAAAAAAAAAAAAAAAAAAAAAAAAAAAAAAAAAAAAAAAAAAAAAAAAAAA111111III
AAAAAAAAAAAAAAAAAAAAAAAAAAAAAAAAAAAAAAAAAAAAAAAAAAAAAAAA111111II
AAAAAAAAAAAAAAAAAAAAAAAAAAAAAAAAAAAAAAAAAAAAAAAAAAAAAAAAA111111I
AAAAAAAAAAAAAAAAAAAAAAAAAAAAAAAAAAAAAAAAAAAAAAAAAAAAAAAAAA111111
AAAAAAAAAAAAAAAAAAAAAAAAAAAAAAAAAAAAAAAAAAAAAAAAAAAAAAAAAAA11111
AAAAAAAAAAAAAAAAAAAAAAAAAAAAAAAAAAAAAAAAAAAAAAAAAAAAAAAAAAAA1111
AAAAAAAAAAAAAAAAAAAAAAAAAAAAAAAAAAAAAAAAAAAAAAAAAAAAAAAAAAAAA111
AAAAAAAAAAAAAAAAAAAAAAAAAAAAAAAAAAAAAAAAAAAAAAAAAAAAAAAAAAAAAA11
AAAAAAAAAAAAAAAAAAAAAAAAAAAAAAAAAAAAAAAAAAAAAAAAAAAAAAAAAAAAAAA1
AAAAAAAAAAAAAAAAAAAAAAAAAAAAAAAAAAAAAAAAAAAAAAAAAAAAAAAAAAAAAAAA
A1I11IIIIIIIIIIIIIIIIIIIIIIIIIIIIIIIIIIIIIIIIIIIIIIIIIIIIIIIIIII
A1I11111111IIIIIIIIIIIIIIIIIIIIIIIIIIIIIIIIIIIIIIIIIIIIIIIIIIIII
AAI11111111IIIIIIIIIIIIIIIIIIIIIIIIIIIIIIIIIIIIIIIIIIIIIIIIIIIII
AA11111111111111IIIIIIIIIIIIIIIIIIIIIIIIIIIIIIIIIIIIIIIIIIIIIIII
AAA11111111111111IIIIIIIIIIIIIIIIIIIIIIIIIIIIIIIIIIIIIIIIIIIIIII
AAAA11111111111111IIIIIIIIIIIIIIIIIIIIIIIIIIIIIIIIIIIIIIIIIIIIII
AAAAA11111111111111IIIIIIIIIIIIIIIIIIIIIIIIIIIIIIIIIIIIIIIIIIIII
AAAAAA11111111111111IIIIIIIIIIIIIIIIIIIIIIIIIIIIIIIIIIIIIIIIIIII
AAAAAAA11111111111111IIIIIIIIIIIIIIIIIIIIIIIIIIIIIIIIIIIIIIIIIII
AAAAAAAA11111111111111IIIIIIIIIIIIIIIIIIIIIIIIIIIIIIIIIIIIIIIIII
AAAAAAAAA11111111111111IIIIIIIIIIIIIIIIIIIIIIIIIIIIIIIIIIIIIIIII
AAAAAAAAAA1111111111111IIIIIIIIIIIIIIIIIIIIIIIIIIIIIIIIIIIIIIIII
AAAAAAAAAAA111111111111IIIIIIIIIIIIIIIIIIIIIIIIIIIIIIIIIIIIIIIII
AAAAAAAAAAAA11111111111IIIIIIIIIIIIIIIIIIIIIIIIIIIIIIIIIIIIIIIII
AAAAAAAAAAAAA1111111111IIIIIIIIIIIIIIIIIIIIIIIIIIIIIIIIIIIIIIIII
AAAAAAAAAAAAAA111111111IIIIIIIIIIIIIIIIIIIIIIIIIIIIIIIIIIIIIIIII
AAAAAAAAAAAAAA11111111111111IIIIIIIIIIIIIIIIIIIIIIIIIIIIIIIIIIII
AAAAAAAAAAAAAAA11111111111111IIIIIIIIIIIIIIIIIIIIIIIIIIIIIIIIIII
AAAAAAAAAAAAAAAA11111111111111IIIIIIIIIIIIIIIIIIIIIIIIIIIIIIIIII
AAAAAAAAAAAAAAAAA11111111111111IIIIIIIIIIIIIIIIIIIIIIIIIIIIIIIII
AAAAAAAAAAAAAAAAAA11111111111111IIIIIIIIIIIIIIIIIIIIIIIIIIIIIIII
AAAAAAAAAAAAAAAAAAA11111111111111IIIIIIIIIIIIIIIIIIIIIIIIIIIIIII
AAAAAAAAAAAAAAAAAAAA1111111111111IIIIIIIIIIIIIIIIIIIIIIIIIIIIIII
AAAAAAAAAAAAAAAAAAAAA111111111111IIIIIIIIIIIIIIIIIIIIIIIIIIIIIII
AAAAAAAAAAAAAAAAAAAAAA11111111111IIIIIIIIIIIIIIIIIIIIIIIIIIIIIII
AAAAAAAAAAAAAAAAAAAAAAA1111111111IIIIIIIIIIIIIIIIIIIIIIIIIIIIIII
AAAAAAAAAAAAAAAAAAAAAAAA111111111IIIIIIIIIIIIIIIIIIIIIIIIIIIIIII
AAAAAAAAAAAAAAAAAAAAAAAAA11111111IIIIIIIIIIIIIIIIIIIIIIIIIIIIIII
AAAAAAAAAAAAAAAAAAAAAAAAAA1111111IIIIIIIIIIIIIIIIIIIIIIIIIIIIIII
AAAAAAAAAAAAAAAAAAAAAAAAAAA111111IIIIIIIIIIIIIIIIIIIIIIIIIIIIIII
AAAAAAAAAAAAAAAAAAAAAAAAAAA11111111111111IIIIIIIIIIIIIIIIIIIIIII
AAAAAAAAAAAAAAAAAAAAAAAAAAAA11111111111111IIIIIIIIIIIIIIIIIIIIII
AAAAAAAAAAAAAAAAAAAAAAAAAAAAA11111111111111IIIIIIIIIIIIIIIIIIIII
AAAAAAAAAAAAAAAAAAAAAAAAAAAAAA11111111111111IIIIIIIIIIIIIIIIIIII
AAAAAAAAAAAAAAAAAAAAAAAAAAAAAAA1111111111111IIIIIIIIIIIIIIIIIIII
AAAAAAAAAAAAAAAAAAAAAAAAAAAAAAAA111111111111IIIIIIIIIIIIIIIIIIII
AAAAAAAAAAAAAAAAAAAAAAAAAAAAAAAAA11111111111IIIIIIIIIIIIIIIIIIII
AAAAAAAAAAAAAAAAAAAAAAAAAAAAAAAAAA1111111111IIIIIIIIIIIIIIIIIIII
AAAAAAAAAAAAAAAAAAAAAAAAAAAAAAAAAAA111111111IIIIIIIIIIIIIIIIIIII
AAAAAAAAAAAAAAAAAAAAAAAAAAAAAAAAAAAA11111111IIIIIIIIIIIIIIIIIIII
AAAAAAAAAAAAAAAAAAAAAAAAAAAAAAAAAAAAA1111111IIIIIIIIIIIIIIIIIIII
AAAAAAAAAAAAAAAAAAAAAAAAAAAAAAAAAAAAAA111111IIIIIIIIIIIIIIIIIIII
AAAAAAAAAAAAAAAAAAAAAAAAAAAAAAAAAAAAAAA11111IIIIIIIIIIIIIIIIIIII
AAAAAAAAAAAAAAAAAAAAAAAAAAAAAAAAAAAAAAA111111111IIIIIIIIIIIIIIII
AAAAAAAAAAAAAAAAAAAAAAAAAAAAAAAAAAAAAAAA11111111111111IIIIIIIIII
AAAAAAAAAAAAAAAAAAAAAAAAAAAAAAAAAAAAAAAAA11111111111111IIIIIIIII
AAAAAAAAAAAAAAAAAAAAAAAAAAAAAAAAAAAAAAAAAA11111111111111IIIIIIII
AAAAAAAAAAAAAAAAAAAAAAAAAAAAAAAAAAAAAAAAAAA11111111111111IIIIIII
AAAAAAAAAAAAAAAAAAAAAAAAAAAAAAAAAAAAAAAAAAAA11111111111111IIIIII
AAAAAAAAAAAAAAAAAAAAAAAAAAAAAAAAAAAAAAAAAAAAA1111111111111IIIIII
AAAAAAAAAAAAAAAAAAAAAAAAAAAAAAAAAAAAAAAAAAAAAA111111111111IIIIII
AAAAAAAAAAAAAAAAAAAAAAAAAAAAAAAAAAAAAAAAAAAAAAA11111111111IIIIII
AAAAAAAAAAAAAAAAAAAAAAAAAAAAAAAAAAAAAAAAAAAAAAAA1111111111IIIIII
AAAAAAAAAAAAAAAAAAAAAAAAAAAAAAAAAAAAAAAAAAAAAAAAA111111111IIIIII
AAAAAAAAAAAAAAAAAAAAAAAAAAAAAAAAAAAAAAAAAAAAAAAAAA11111111IIIIII
AAAAAAAAAAAAAAAAAAAAAAAAAAAAAAAAAAAAAAAAAAAAAAAAAAA1111111IIIIII
AAAAAAAAAAAAAAAAAAAAAAAAAAAAAAAAAAAAAAAAAAAAAAAAAAAA111111IIIIII
AAAAAAAAAAAAAAAAAAAAAAAAAAAAAAAAAAAAAAAAAAAAAAAAAAAA111111111111
AAAAAAAAAAAAAAAAAAAAAAAAAAAAAAAAAAAAAAAAAAAAAAAAAAAAA11111111111
AAAAAAAAAAAAAAAAAAAAAAAAAAAAAAAAAAAAAAAAAAAAAAAAAAAAAA1111111111
AAAAAAAAAAAAAAAAAAAAAAAAAAAAAAAAAAAAAAAAAAAAAAAAAAAAAAA111111111
AAAAAAAAAAAAAAAAAAAAAAAAAAAAAAAAAAAAAAAAAAAAAAAAAAAAAAAA11111111
AAAAAAAAAAAAAAAAAAAAAAAAAAAAAAAAAAAAAAAAAAAAAAAAAAAAAAAAA1111111
AAAAAAAAAAAAAAAAAAAAAAAAAAAAAAAAAAAAAAAAAAAAAAAAAAAAAAAAAA111111
AAAAAAAAAAAAAAAAAAAAAAAAAAAAAAAAAAAAAAAAAAAAAAAAAAAAAAAAAAA11111
AAAAAAAAAAAAAAAAAAAAAAAAAAAAAAAAAAAAAAAAAAAAAAAAAAAAAAAAAAAA1111
AAAAAAAAAAAAAAAAAAAAAAAAAAAAAAAAAAAAAAAAAAAAAAAAAAAAAAAAAAAAA111
AAAAAAAAAAAAAAAAAAAAAAAAAAAAAAAAAAAAAAAAAAAAAAAAAAAAAAAAAAAAAA11
AAAAAAAAAAAAAAAAAAAAAAAAAAAAAAAAAAAAAAAAAAAAAAAAAAAAAAAAAAAAAAA1
AAAAAAAAAAAAAAAAAAAAAAAAAAAAAAAAAAAAAAAAAAAAAAAAAAAAAAAAAAAAAAAA
[MLOP] Prefetch Degree Mean: 13.1437
[MLOP] Prefetch Degree SD: 0.795578
[MLOP] Max Score Left Mean (%): 76.8846
[MLOP] Max Score Left SD (%): 3.09783
[MLOP] Max Score Right Mean (%): 98.1274
[MLOP] Max Score Right SD (%): 0.623479
=== CPU 3 L1D Prefetcher Statistics ===
[MLOP] History of tracked zone:
IIIIIIIIIIIIIIIIIIIIIIIIIIIIIIIIIIIIIIIIIIIIIIIIIIIIIIIIIIIIIIII
AII1I1I11I1111I1IIIIIIIIIIIIIIIIIIIIIIIIIIIIIIIIIIIIIIIIIIIIIIII
AAI111111I1111I1IIIIIIIIIIIIIIIIIIIIIIIIIIIIIIIIIIIIIIIIIIIIIIII
AAI11111111111I1IIIIIIIIIIIIIIIIIIIIIIIIIIIIIIIIIIIIIIIIIIIIIIII
AAI1111111111111IIIIIIIIIIIIIIIIIIIIIIIIIIIIIIIIIIIIIIIIIIIIIIII
AAI11111111111111IIIIIIIIIIIIIIIIIIIIIIIIIIIIIIIIIIIIIIIIIIIIIII
AAI1A1111111111111I1IIIIIIIIIIIIIIIIIIIIIIIIIIIIIIIIIIIIIIIIIIII
AAA1A1111111111111I1IIIIIIIIIIIIIIIIIIIIIIIIIIIIIIIIIIIIIIIIIIII
AAAAA111111111111111IIIIIIIIIIIIIIIIIIIIIIIIIIIIIIIIIIIIIIIIIIII
AAAAA1A1111111111111I1IIIIIIIIIIIIIIIIIIIIIIIIIIIIIIIIIIIIIIIIII
AAAAAAA111111111111111IIIIIIIIIIIIIIIIIIIIIIIIIIIIIIIIIIIIIIIIII
AAAAAAA11A1111111111111I1IIIIIIIIIIIIIIIIIIIIIIIIIIIIIIIIIIIIIII
AAAAAAAA1A1111111111111I1IIIIIIIIIIIIIIIIIIIIIIIIIIIIIIIIIIIIIII
AAAAAAAAAA111111111111111IIIIIIIIIIIIIIIIIIIIIIIIIIIIIIIIIIIIIII
AAAAAAAAAA1A1111111111111I1IIIIIIIIIIIIIIIIIIIIIIIIIIIIIIIIIIIII
AAAAAAAAAAAA111111111111111IIIIIIIIIIIIIIIIIIIIIIIIIIIIIIIIIIIII
AAAAAAAAAAAA11A1111111111111I1IIIIIIIIIIIIIIIIIIIIIIIIIIIIIIIIII
AAAAAAAAAAAAA1A1111111111111I1IIIIIIIIIIIIIIIIIIIIIIIIIIIIIIIIII
AAAAAAAAAAAAAAA111111111111111IIIIIIIIIIIIIIIIIIIIIIIIIIIIIIIIII
AAAAAAAAAAAAAAA1A1111111111111I1IIIIIIIIIIIIIIIIIIIIIIIIIIIIIIII
AAAAAAAAAAAAAAAAA111111111111111IIIIIIIIIIIIIIIIIIIIIIIIIIIIIIII
AAAAAAAAAAAAAAAAA11A1111111111111I1IIIIIIIIIIIIIIIIIIIIIIIIIIIII
AAAAAAAAAAAAAAAAAA1A1111111111111I1IIIIIIIIIIIIIIIIIIIIIIIIIIIII
AAAAAAAAAAAAAAAAAAAA111111111111111IIIIIIIIIIIIIIIIIIIIIIIIIIIII
AAAAAAAAAAAAAAAAAAAA1A1111111111111I1IIIIIIIIIIIIIIIIIIIIIIIIIII
AAAAAAAAAAAAAAAAAAAAAA111111111111111IIIIIIIIIIIIIIIIIIIIIIIIIII
AAAAAAAAAAAAAAAAAAAAAA11A1111111111111I1IIIIIIIIIIIIIIIIIIIIIIII
AAAAAAAAAAAAAAAAAAAAAAA1A1111111111111I1IIIIIIIIIIIIIIIIIIIIIIII
AAAAAAAAAAAAAAAAAAAAAAAAA111111111111111IIIIIIIIIIIIIIIIIIIIIIII
AAAAAAAAAAAAAAAAAAAAAAAAA1A1111111111111I1IIIIIIIIIIIIIIIIIIIIII
AAAAAAAAAAAAAAAAAAAAAAAAAAA111111111111111IIIIIIIIIIIIIIIIIIIIII
AAAAAAAAAAAAAAAAAAAAAAAAAAA11A1111111111111I1IIIIIIIIIIIIIIIIIII
AAAAAAAAAAAAAAAAAAAAAAAAAAAA1A1111111111111I1IIIIIIIIIIIIIIIIIII
AAAAAAAAAAAAAAAAAAAAAAAAAAAAAA111111111111111IIIIIIIIIIIIIIIIIII
AAAAAAAAAAAAAAAAAAAAAAAAAAAAAA1A1111111111111I1IIIIIIIIIIIIIIIII
AAAAAAAAAAAAAAAAAAAAAAAAAAAAAAAA111111111111111IIIIIIIIIIIIIIIII
AAAAAAAAAAAAAAAAAAAAAAAAAAAAAAAA11A1111111111111I1IIIIIIIIIIIIII
AAAAAAAAAAAAAAAAAAAAAAAAAAAAAAAAA1A1111111111111I1IIIIIIIIIIIIII
AAAAAAAAAAAAAAAAAAAAAAAAAAAAAAAAAAA111111111111111IIIIIIIIIIIIII
AAAAAAAAAAAAAAAAAAAAAAAAAAAAAAAAAAA1A1111111111111I1IIIIIIIIIIII
AAAAAAAAAAAAAAAAAAAAAAAAAAAAAAAAAAAAA111111111111111IIIIIIIIIIII
AAAAAAAAAAAAAAAAAAAAAAAAAAAAAAAAAAAAA11A1111111111111I1IIIIIIIII
AAAAAAAAAAAAAAAAAAAAAAAAAAAAAAAAAAAAAA1A1111111111111I1IIIIIIIII
AAAAAAAAAAAAAAAAAAAAAAAAAAAAAAAAAAAAAAAA111111111111111IIIIIIIII
AAAAAAAAAAAAAAAAAAAAAAAAAAAAAAAAAAAAAAAA1A1111111111111I1IIIIIII
AAAAAAAAAAAAAAAAAAAAAAAAAAAAAAAAAAAAAAAAAA111111111111111IIIIIII
AAAAAAAAAAAAAAAAAAAAAAAAAAAAAAAAAAAAAAAAAA11A1111111111111I1IIII
AAAAAAAAAAAAAAAAAAAAAAAAAAAAAAAAAAAAAAAAAAA1A1111111111111I1IIII
AAAAAAAAAAAAAAAAAAAAAAAAAAAAAAAAAAAAAAAAAAAAA111111111111111IIII
AAAAAAAAAAAAAAAAAAAAAAAAAAAAAAAAAAAAAAAAAAAAA1A1111111111111I1II
AAAAAAAAAAAAAAAAAAAAAAAAAAAAAAAAAAAAAAAAAAAAAAA111111111111111II
AAAAAAAAAAAAAAAAAAAAAAAAAAAAAAAAAAAAAAAAAAAAAAA11A1111111111111I
AAAAAAAAAAAAAAAAAAAAAAAAAAAAAAAAAAAAAAAAAAAAAAAA1A1111111111111I
AAAAAAAAAAAAAAAAAAAAAAAAAAAAAAAAAAAAAAAAAAAAAAAAAA11111111111111
AAAAAAAAAAAAAAAAAAAAAAAAAAAAAAAAAAAAAAAAAAAAAAAAAA1A111111111111
AAAAAAAAAAAAAAAAAAAAAAAAAAAAAAAAAAAAAAAAAAAAAAAAAAAA111111111111
AAAAAAAAAAAAAAAAAAAAAAAAAAAAAAAAAAAAAAAAAAAAAAAAAAAA11A111111111
AAAAAAAAAAAAAAAAAAAAAAAAAAAAAAAAAAAAAAAAAAAAAAAAAAAAA1A111111111
AAAAAAAAAAAAAAAAAAAAAAAAAAAAAAAAAAAAAAAAAAAAAAAAAAAAAAA111111111
AAAAAAAAAAAAAAAAAAAAAAAAAAAAAAAAAAAAAAAAAAAAAAAAAAAAAAA1A1111111
AAAAAAAAAAAAAAAAAAAAAAAAAAAAAAAAAAAAAAAAAAAAAAAAAAAAAAAAA1111111
AAAAAAAAAAAAAAAAAAAAAAAAAAAAAAAAAAAAAAAAAAAAAAAAAAAAAAAAA11A1111
AAAAAAAAAAAAAAAAAAAAAAAAAAAAAAAAAAAAAAAAAAAAAAAAAAAAAAAAAA1A1111
AAAAAAAAAAAAAAAAAAAAAAAAAAAAAAAAAAAAAAAAAAAAAAAAAAAAAAAAAAAA1111
AAAAAAAAAAAAAAAAAAAAAAAAAAAAAAAAAAAAAAAAAAAAAAAAAAAAAAAAAAAA1A11
AAAAAAAAAAAAAAAAAAAAAAAAAAAAAAAAAAAAAAAAAAAAAAAAAAAAAAAAAAAAAA11
AAAAAAAAAAAAAAAAAAAAAAAAAAAAAAAAAAAAAAAAAAAAAAAAAAAAAAAAAAAAAAA1
AAAAAAAAAAAAAAAAAAAAAAAAAAAAAAAAAAAAAAAAAAAAAAAAAAAAAAAAAAAAAAAA
[MLOP] Prefetch Degree Mean: 10.5392
[MLOP] Prefetch Degree SD: 1.79595
[MLOP] Max Score Left Mean (%): 72.6344
[MLOP] Max Score Left SD (%): 11.8848
[MLOP] Max Score Right Mean (%): 92.9319
[MLOP] Max Score Right SD (%): 4.93909

DRAM Statistics
 CHANNEL 0
 RQ ROW_BUFFER_HIT:    6186561  ROW_BUFFER_MISS:   16448275
 DBUS_CONGESTED:          0
 WQ ROW_BUFFER_HIT:    1187842  ROW_BUFFER_MISS:   12181350  FULL:         99

 AVG_CONGESTED_CYCLE: -
 All warmup complete: 5
Channel 0 Bank busy for read cycles: 0
Channel 0 Bank busy for write cycles: 0
Channel 0
Rank 0
0banks busy for read cycles: 30234
0banks busy for write cycles: 0
1banks busy for read cycles: 4283620
1banks busy for write cycles: 1331699
2banks busy for read cycles: 6508458
2banks busy for write cycles: 1331666
3banks busy for read cycles: 8134946
3banks busy for write cycles: 1331665
4banks busy for read cycles: 11544007
4banks busy for write cycles: 1331992
5banks busy for read cycles: 20622191
5banks busy for write cycles: 1366923
6banks busy for read cycles: 44886141
6banks busy for write cycles: 2713495
7banks busy for read cycles: 107361488
7banks busy for write cycles: 35038886
8banks busy for read cycles: 254050081
8banks busy for write cycles: 310328596

CPU 0 Branch Prediction Accuracy: 99.9874% MPKI: 0.00111441 Average ROB Occupancy at Mispredict: 44.2031
Branch types
NOT_BRANCH: 794668939 99.1137%
BRANCH_DIRECT_JUMP: 869777 0.108481%
BRANCH_INDIRECT: 144937 0.018077%
BRANCH_CONDITIONAL: 4351407 0.542722%
BRANCH_DIRECT_CALL: 869655 0.108466%
BRANCH_INDIRECT_CALL: 0 0%
BRANCH_RETURN: 869655 0.108466%
BRANCH_OTHER: 0 0%


CPU 1 Branch Prediction Accuracy: 98.0714% MPKI: 7.17539 Average ROB Occupancy at Mispredict: 15.1445
Branch types
NOT_BRANCH: 313712524 62.7944%
BRANCH_DIRECT_JUMP: 0 0%
BRANCH_INDIRECT: 0 0%
BRANCH_CONDITIONAL: 185874308 37.2056%
BRANCH_DIRECT_CALL: 0 0%
BRANCH_INDIRECT_CALL: 0 0%
BRANCH_RETURN: 0 0%
BRANCH_OTHER: 0 0%


CPU 2 Branch Prediction Accuracy: 99.2294% MPKI: 1.8179 Average ROB Occupancy at Mispredict: 189.792
Branch types
NOT_BRANCH: 191035269 75.7031%
BRANCH_DIRECT_JUMP: 6345890 2.51474%
BRANCH_INDIRECT: 10 3.96278e-06%
BRANCH_CONDITIONAL: 53772854 21.309%
BRANCH_DIRECT_CALL: 597173 0.236647%
BRANCH_INDIRECT_CALL: 1 3.96278e-07%
BRANCH_RETURN: 597174 0.236647%
BRANCH_OTHER: 0 0%


CPU 3 Branch Prediction Accuracy: 97.0867% MPKI: 0.488063 Average ROB Occupancy at Mispredict: 260.127
Branch types
NOT_BRANCH: 196383082 98.1915%
BRANCH_DIRECT_JUMP: 593826 0.296913%
BRANCH_INDIRECT: 0 0%
BRANCH_CONDITIONAL: 3023226 1.51161%
BRANCH_DIRECT_CALL: 0 0%
BRANCH_INDIRECT_CALL: 0 0%
BRANCH_RETURN: 0 0%
BRANCH_OTHER: 0 0%

DRAM PAGES: 1048576
Allocated PAGES: 260824
