
*** ChampSim Multicore Out-of-Order Simulator ***

Warmup Instructions: 50000000
Simulation Instructions: 200000000
Number of CPUs: 4
LLC sets: 8192
LLC ways: 16
Off-chip DRAM Size: 4096 MB Channels: 1 Width: 64-bit Data Rate: 6400 MT/s
CPU 0 runs ./traces/ligra/ligra_Radii.com-lj.ungraph.gcc_6.3.0_O3.drop_5000M.length_250M.champsimtrace.xz
.xz
CPU 1 runs ./traces/ligra/ligra_Radii.com-lj.ungraph.gcc_6.3.0_O3.drop_5000M.length_250M.champsimtrace.xz
.xz
CPU 2 runs ./traces/ligra/ligra_Radii.com-lj.ungraph.gcc_6.3.0_O3.drop_5000M.length_250M.champsimtrace.xz
.xz
CPU 3 runs ./traces/ligra/ligra_Radii.com-lj.ungraph.gcc_6.3.0_O3.drop_5000M.length_250M.champsimtrace.xz
.xz
BTB has LRU replacement policy
ITLB has LRU replacement policy
DTLB has LRU replacement policy
STLB has LRU replacement policy
L1I has LRU replacement policy
L1D has LRU replacement policy
Initialize SRRIP state for L2C
Initialize DRRIP state for LLC
BTB has LRU replacement policy
ITLB has LRU replacement policy
DTLB has LRU replacement policy
STLB has LRU replacement policy
L1I has LRU replacement policy
L1D has LRU replacement policy
Initialize SRRIP state for L2C
Initialize DRRIP state for LLC
BTB has LRU replacement policy
ITLB has LRU replacement policy
DTLB has LRU replacement policy
STLB has LRU replacement policy
L1I has LRU replacement policy
L1D has LRU replacement policy
Initialize SRRIP state for L2C
Initialize DRRIP state for LLC
BTB has LRU replacement policy
ITLB has LRU replacement policy
DTLB has LRU replacement policy
STLB has LRU replacement policy
L1I has LRU replacement policy
L1D has LRU replacement policy
Initialize SRRIP state for L2C
Initialize DRRIP state for LLC
Heartbeat CPU 0 instructions: 10000000 cycles: 3795376 heartbeat IPC: 2.63479 cumulative IPC: 2.63479 (Simulation time: 0 hr 2 min 21 sec) 
Heartbeat CPU 1 instructions: 10000000 cycles: 3795380 heartbeat IPC: 2.63478 cumulative IPC: 2.63478 (Simulation time: 0 hr 2 min 21 sec) 
Heartbeat CPU 2 instructions: 10000000 cycles: 3795386 heartbeat IPC: 2.63478 cumulative IPC: 2.63478 (Simulation time: 0 hr 2 min 21 sec) 
Heartbeat CPU 3 instructions: 10000000 cycles: 3795390 heartbeat IPC: 2.63478 cumulative IPC: 2.63478 (Simulation time: 0 hr 2 min 21 sec) 
Heartbeat CPU 0 instructions: 20000002 cycles: 7591729 heartbeat IPC: 2.63411 cumulative IPC: 2.63445 (Simulation time: 0 hr 4 min 35 sec) 
Heartbeat CPU 1 instructions: 20000002 cycles: 7591736 heartbeat IPC: 2.63411 cumulative IPC: 2.63444 (Simulation time: 0 hr 4 min 35 sec) 
Heartbeat CPU 2 instructions: 20000002 cycles: 7591741 heartbeat IPC: 2.63411 cumulative IPC: 2.63444 (Simulation time: 0 hr 4 min 35 sec) 
Heartbeat CPU 3 instructions: 20000002 cycles: 7591749 heartbeat IPC: 2.6341 cumulative IPC: 2.63444 (Simulation time: 0 hr 4 min 35 sec) 
Heartbeat CPU 0 instructions: 30000001 cycles: 11388007 heartbeat IPC: 2.63416 cumulative IPC: 2.63435 (Simulation time: 0 hr 7 min 4 sec) 
Heartbeat CPU 1 instructions: 30000001 cycles: 11388014 heartbeat IPC: 2.63416 cumulative IPC: 2.63435 (Simulation time: 0 hr 7 min 4 sec) 
Heartbeat CPU 2 instructions: 30000001 cycles: 11388020 heartbeat IPC: 2.63416 cumulative IPC: 2.63435 (Simulation time: 0 hr 7 min 4 sec) 
Heartbeat CPU 3 instructions: 30000001 cycles: 11388029 heartbeat IPC: 2.63416 cumulative IPC: 2.63435 (Simulation time: 0 hr 7 min 4 sec) 
Heartbeat CPU 0 instructions: 40000001 cycles: 15186034 heartbeat IPC: 2.63295 cumulative IPC: 2.634 (Simulation time: 0 hr 9 min 19 sec) 
Heartbeat CPU 1 instructions: 40000001 cycles: 15186043 heartbeat IPC: 2.63294 cumulative IPC: 2.634 (Simulation time: 0 hr 9 min 19 sec) 
Heartbeat CPU 2 instructions: 40000001 cycles: 15186047 heartbeat IPC: 2.63295 cumulative IPC: 2.634 (Simulation time: 0 hr 9 min 19 sec) 
Heartbeat CPU 3 instructions: 40000001 cycles: 15186058 heartbeat IPC: 2.63294 cumulative IPC: 2.634 (Simulation time: 0 hr 9 min 19 sec) 
Heartbeat CPU 0 instructions: 50000000 cycles: 18986676 heartbeat IPC: 2.63113 cumulative IPC: 2.63343 (Simulation time: 0 hr 11 min 36 sec) 
Heartbeat CPU 1 instructions: 50000000 cycles: 18986684 heartbeat IPC: 2.63113 cumulative IPC: 2.63342 (Simulation time: 0 hr 11 min 36 sec) 
Heartbeat CPU 2 instructions: 50000000 cycles: 18986691 heartbeat IPC: 2.63113 cumulative IPC: 2.63342 (Simulation time: 0 hr 11 min 36 sec) 
Heartbeat CPU 3 instructions: 50000000 cycles: 18986699 heartbeat IPC: 2.63113 cumulative IPC: 2.63342 (Simulation time: 0 hr 11 min 36 sec) 

Warmup complete CPU 0 instructions: 50000063 cycles: 18986700 (Simulation time: 0 hr 11 min 36 sec) 
Warmup complete CPU 1 instructions: 50000043 cycles: 18986700 (Simulation time: 0 hr 11 min 36 sec) 
Warmup complete CPU 2 instructions: 50000023 cycles: 18986700 (Simulation time: 0 hr 11 min 36 sec) 
Warmup complete CPU 3 instructions: 50000003 cycles: 18986700 (Simulation time: 0 hr 11 min 36 sec) 

Heartbeat CPU 1 instructions: 60000002 cycles: 27915683 heartbeat IPC: 1.11995 cumulative IPC: 1.11994 (Simulation time: 0 hr 14 min 18 sec) 
Heartbeat CPU 0 instructions: 60000002 cycles: 27918172 heartbeat IPC: 1.11963 cumulative IPC: 1.11963 (Simulation time: 0 hr 14 min 18 sec) 
Heartbeat CPU 2 instructions: 60000002 cycles: 27922271 heartbeat IPC: 1.11912 cumulative IPC: 1.11912 (Simulation time: 0 hr 14 min 19 sec) 
Heartbeat CPU 3 instructions: 60000002 cycles: 27928473 heartbeat IPC: 1.11835 cumulative IPC: 1.11835 (Simulation time: 0 hr 14 min 19 sec) 
Heartbeat CPU 1 instructions: 70000000 cycles: 36865614 heartbeat IPC: 1.11733 cumulative IPC: 1.11863 (Simulation time: 0 hr 16 min 44 sec) 
Heartbeat CPU 2 instructions: 70000000 cycles: 36867688 heartbeat IPC: 1.11789 cumulative IPC: 1.11851 (Simulation time: 0 hr 16 min 44 sec) 
Heartbeat CPU 0 instructions: 70000000 cycles: 36874851 heartbeat IPC: 1.11648 cumulative IPC: 1.11805 (Simulation time: 0 hr 16 min 44 sec) 
Heartbeat CPU 3 instructions: 70000000 cycles: 36882622 heartbeat IPC: 1.1168 cumulative IPC: 1.11757 (Simulation time: 0 hr 16 min 44 sec) 
Heartbeat CPU 1 instructions: 80000001 cycles: 45809131 heartbeat IPC: 1.11813 cumulative IPC: 1.11847 (Simulation time: 0 hr 19 min 25 sec) 
Heartbeat CPU 2 instructions: 80000001 cycles: 45811362 heartbeat IPC: 1.11811 cumulative IPC: 1.11837 (Simulation time: 0 hr 19 min 25 sec) 
Heartbeat CPU 0 instructions: 80000001 cycles: 45814047 heartbeat IPC: 1.11867 cumulative IPC: 1.11826 (Simulation time: 0 hr 19 min 25 sec) 
Heartbeat CPU 3 instructions: 80000001 cycles: 45819022 heartbeat IPC: 1.11902 cumulative IPC: 1.11805 (Simulation time: 0 hr 19 min 25 sec) 
Heartbeat CPU 2 instructions: 90000002 cycles: 54778806 heartbeat IPC: 1.11515 cumulative IPC: 1.11756 (Simulation time: 0 hr 22 min 6 sec) 
Heartbeat CPU 1 instructions: 90000002 cycles: 54781274 heartbeat IPC: 1.11456 cumulative IPC: 1.11749 (Simulation time: 0 hr 22 min 6 sec) 
Heartbeat CPU 0 instructions: 90000002 cycles: 54785511 heartbeat IPC: 1.11465 cumulative IPC: 1.11735 (Simulation time: 0 hr 22 min 6 sec) 
Heartbeat CPU 3 instructions: 90000002 cycles: 54790648 heartbeat IPC: 1.11463 cumulative IPC: 1.1172 (Simulation time: 0 hr 22 min 7 sec) 
Heartbeat CPU 2 instructions: 100000001 cycles: 63801401 heartbeat IPC: 1.10833 cumulative IPC: 1.1157 (Simulation time: 0 hr 24 min 33 sec) 
Heartbeat CPU 1 instructions: 100000001 cycles: 63802458 heartbeat IPC: 1.1085 cumulative IPC: 1.11568 (Simulation time: 0 hr 24 min 33 sec) 
Heartbeat CPU 3 instructions: 100000001 cycles: 63810558 heartbeat IPC: 1.10866 cumulative IPC: 1.11548 (Simulation time: 0 hr 24 min 34 sec) 
Heartbeat CPU 0 instructions: 100000001 cycles: 63815476 heartbeat IPC: 1.10742 cumulative IPC: 1.11535 (Simulation time: 0 hr 24 min 34 sec) 
Heartbeat CPU 1 instructions: 110000000 cycles: 72855289 heartbeat IPC: 1.10463 cumulative IPC: 1.11382 (Simulation time: 0 hr 27 min 24 sec) 
Heartbeat CPU 2 instructions: 110000000 cycles: 72855840 heartbeat IPC: 1.10443 cumulative IPC: 1.11381 (Simulation time: 0 hr 27 min 24 sec) 
Heartbeat CPU 0 instructions: 110000000 cycles: 72861435 heartbeat IPC: 1.10547 cumulative IPC: 1.11369 (Simulation time: 0 hr 27 min 24 sec) 
Heartbeat CPU 3 instructions: 110000000 cycles: 72863582 heartbeat IPC: 1.1046 cumulative IPC: 1.11365 (Simulation time: 0 hr 27 min 24 sec) 
Heartbeat CPU 2 instructions: 120000002 cycles: 81950470 heartbeat IPC: 1.09955 cumulative IPC: 1.11175 (Simulation time: 0 hr 30 min 9 sec) 
Heartbeat CPU 1 instructions: 120000002 cycles: 81954204 heartbeat IPC: 1.09903 cumulative IPC: 1.11168 (Simulation time: 0 hr 30 min 9 sec) 
Heartbeat CPU 3 instructions: 120000002 cycles: 81956324 heartbeat IPC: 1.09978 cumulative IPC: 1.11165 (Simulation time: 0 hr 30 min 9 sec) 
Heartbeat CPU 0 instructions: 120000002 cycles: 81963115 heartbeat IPC: 1.0987 cumulative IPC: 1.11153 (Simulation time: 0 hr 30 min 9 sec) 
Heartbeat CPU 1 instructions: 130000000 cycles: 90933461 heartbeat IPC: 1.11368 cumulative IPC: 1.11193 (Simulation time: 0 hr 32 min 36 sec) 
Heartbeat CPU 2 instructions: 130000000 cycles: 90936092 heartbeat IPC: 1.11289 cumulative IPC: 1.11189 (Simulation time: 0 hr 32 min 36 sec) 
Heartbeat CPU 3 instructions: 130000000 cycles: 90938763 heartbeat IPC: 1.11328 cumulative IPC: 1.11185 (Simulation time: 0 hr 32 min 36 sec) 
Heartbeat CPU 0 instructions: 130000000 cycles: 90953431 heartbeat IPC: 1.11231 cumulative IPC: 1.11162 (Simulation time: 0 hr 32 min 36 sec) 
Heartbeat CPU 1 instructions: 140000003 cycles: 99865608 heartbeat IPC: 1.11955 cumulative IPC: 1.11277 (Simulation time: 0 hr 35 min 10 sec) 
Heartbeat CPU 2 instructions: 140000003 cycles: 99868372 heartbeat IPC: 1.11954 cumulative IPC: 1.11274 (Simulation time: 0 hr 35 min 10 sec) 
Heartbeat CPU 3 instructions: 140000003 cycles: 99876430 heartbeat IPC: 1.11886 cumulative IPC: 1.11263 (Simulation time: 0 hr 35 min 10 sec) 
Heartbeat CPU 0 instructions: 140000003 cycles: 99881454 heartbeat IPC: 1.12007 cumulative IPC: 1.11256 (Simulation time: 0 hr 35 min 10 sec) 
Heartbeat CPU 1 instructions: 150000001 cycles: 108772626 heartbeat IPC: 1.12271 cumulative IPC: 1.11376 (Simulation time: 0 hr 37 min 54 sec) 
Heartbeat CPU 2 instructions: 150000001 cycles: 108775064 heartbeat IPC: 1.12275 cumulative IPC: 1.11373 (Simulation time: 0 hr 37 min 54 sec) 
Heartbeat CPU 3 instructions: 150000001 cycles: 108785357 heartbeat IPC: 1.12247 cumulative IPC: 1.1136 (Simulation time: 0 hr 37 min 54 sec) 
Heartbeat CPU 0 instructions: 150000001 cycles: 108790004 heartbeat IPC: 1.12252 cumulative IPC: 1.11354 (Simulation time: 0 hr 37 min 54 sec) 
Heartbeat CPU 2 instructions: 160000001 cycles: 117853083 heartbeat IPC: 1.10156 cumulative IPC: 1.11261 (Simulation time: 0 hr 40 min 43 sec) 
Heartbeat CPU 1 instructions: 160000001 cycles: 117855449 heartbeat IPC: 1.10098 cumulative IPC: 1.11259 (Simulation time: 0 hr 40 min 43 sec) 
Heartbeat CPU 3 instructions: 160000001 cycles: 117869269 heartbeat IPC: 1.10085 cumulative IPC: 1.11243 (Simulation time: 0 hr 40 min 43 sec) 
Heartbeat CPU 0 instructions: 160000001 cycles: 117871816 heartbeat IPC: 1.1011 cumulative IPC: 1.1124 (Simulation time: 0 hr 40 min 43 sec) 
Heartbeat CPU 2 instructions: 170000000 cycles: 127021957 heartbeat IPC: 1.09065 cumulative IPC: 1.11075 (Simulation time: 0 hr 43 min 30 sec) 
Heartbeat CPU 1 instructions: 170000000 cycles: 127031764 heartbeat IPC: 1.08976 cumulative IPC: 1.11065 (Simulation time: 0 hr 43 min 30 sec) 
Heartbeat CPU 3 instructions: 170000000 cycles: 127043798 heartbeat IPC: 1.08997 cumulative IPC: 1.11052 (Simulation time: 0 hr 43 min 31 sec) 
Heartbeat CPU 0 instructions: 170000000 cycles: 127045961 heartbeat IPC: 1.09002 cumulative IPC: 1.1105 (Simulation time: 0 hr 43 min 31 sec) 
Heartbeat CPU 2 instructions: 180000000 cycles: 136326944 heartbeat IPC: 1.07469 cumulative IPC: 1.10789 (Simulation time: 0 hr 46 min 9 sec) 
Heartbeat CPU 1 instructions: 180000000 cycles: 136341166 heartbeat IPC: 1.07418 cumulative IPC: 1.10775 (Simulation time: 0 hr 46 min 9 sec) 
Heartbeat CPU 0 instructions: 180000000 cycles: 136346078 heartbeat IPC: 1.07526 cumulative IPC: 1.10771 (Simulation time: 0 hr 46 min 9 sec) 
Heartbeat CPU 3 instructions: 180000000 cycles: 136351630 heartbeat IPC: 1.07436 cumulative IPC: 1.10766 (Simulation time: 0 hr 46 min 9 sec) 
Heartbeat CPU 2 instructions: 190000000 cycles: 145616225 heartbeat IPC: 1.07651 cumulative IPC: 1.10559 (Simulation time: 0 hr 49 min 3 sec) 
Heartbeat CPU 1 instructions: 190000000 cycles: 145630704 heartbeat IPC: 1.07648 cumulative IPC: 1.10546 (Simulation time: 0 hr 49 min 3 sec) 
Heartbeat CPU 0 instructions: 190000000 cycles: 145637035 heartbeat IPC: 1.07632 cumulative IPC: 1.10541 (Simulation time: 0 hr 49 min 4 sec) 
Heartbeat CPU 3 instructions: 190000000 cycles: 145641416 heartbeat IPC: 1.07645 cumulative IPC: 1.10537 (Simulation time: 0 hr 49 min 4 sec) 
Heartbeat CPU 2 instructions: 200000000 cycles: 154591496 heartbeat IPC: 1.11417 cumulative IPC: 1.10616 (Simulation time: 0 hr 51 min 52 sec) 
Heartbeat CPU 1 instructions: 200000000 cycles: 154609763 heartbeat IPC: 1.1137 cumulative IPC: 1.10601 (Simulation time: 0 hr 51 min 52 sec) 
Heartbeat CPU 3 instructions: 200000000 cycles: 154616223 heartbeat IPC: 1.11423 cumulative IPC: 1.10595 (Simulation time: 0 hr 51 min 52 sec) 
Heartbeat CPU 0 instructions: 200000000 cycles: 154616724 heartbeat IPC: 1.11362 cumulative IPC: 1.10595 (Simulation time: 0 hr 51 min 52 sec) 
Heartbeat CPU 2 instructions: 210000002 cycles: 163527080 heartbeat IPC: 1.11912 cumulative IPC: 1.10696 (Simulation time: 0 hr 54 min 27 sec) 
Heartbeat CPU 0 instructions: 210000002 cycles: 163543039 heartbeat IPC: 1.12028 cumulative IPC: 1.10683 (Simulation time: 0 hr 54 min 27 sec) 
Heartbeat CPU 1 instructions: 210000002 cycles: 163544120 heartbeat IPC: 1.11927 cumulative IPC: 1.10683 (Simulation time: 0 hr 54 min 27 sec) 
Heartbeat CPU 3 instructions: 210000002 cycles: 163556345 heartbeat IPC: 1.11855 cumulative IPC: 1.10673 (Simulation time: 0 hr 54 min 27 sec) 
Heartbeat CPU 2 instructions: 220000000 cycles: 172405746 heartbeat IPC: 1.1263 cumulative IPC: 1.10808 (Simulation time: 0 hr 57 min 10 sec) 
Heartbeat CPU 1 instructions: 220000000 cycles: 172417294 heartbeat IPC: 1.12699 cumulative IPC: 1.10799 (Simulation time: 0 hr 57 min 10 sec) 
Heartbeat CPU 0 instructions: 220000000 cycles: 172422745 heartbeat IPC: 1.12616 cumulative IPC: 1.10795 (Simulation time: 0 hr 57 min 10 sec) 
Heartbeat CPU 3 instructions: 220000000 cycles: 172434600 heartbeat IPC: 1.12635 cumulative IPC: 1.10787 (Simulation time: 0 hr 57 min 11 sec) 
Heartbeat CPU 2 instructions: 230000000 cycles: 181460787 heartbeat IPC: 1.10436 cumulative IPC: 1.10787 (Simulation time: 1 hr 0 min 10 sec) 
Heartbeat CPU 0 instructions: 230000000 cycles: 181474883 heartbeat IPC: 1.10471 cumulative IPC: 1.10777 (Simulation time: 1 hr 0 min 11 sec) 
Heartbeat CPU 1 instructions: 230000000 cycles: 181475528 heartbeat IPC: 1.10397 cumulative IPC: 1.10777 (Simulation time: 1 hr 0 min 11 sec) 
Heartbeat CPU 3 instructions: 230000000 cycles: 181491778 heartbeat IPC: 1.1041 cumulative IPC: 1.10766 (Simulation time: 1 hr 0 min 11 sec) 
Heartbeat CPU 2 instructions: 240000000 cycles: 190778917 heartbeat IPC: 1.07318 cumulative IPC: 1.10599 (Simulation time: 1 hr 2 min 47 sec) 
Heartbeat CPU 0 instructions: 240000000 cycles: 190784468 heartbeat IPC: 1.07416 cumulative IPC: 1.10595 (Simulation time: 1 hr 2 min 47 sec) 
Heartbeat CPU 1 instructions: 240000000 cycles: 190789289 heartbeat IPC: 1.07368 cumulative IPC: 1.10592 (Simulation time: 1 hr 2 min 47 sec) 
Heartbeat CPU 3 instructions: 240000000 cycles: 190806184 heartbeat IPC: 1.07361 cumulative IPC: 1.10581 (Simulation time: 1 hr 2 min 48 sec) 
*** Reached end of trace for Core: 0 Repeating trace: ./traces/ligra/ligra_Radii.com-lj.ungraph.gcc_6.3.0_O3.drop_5000M.length_250M.champsimtrace.xz
Heartbeat CPU 0 instructions: 250000000 cycles: 199829835 heartbeat IPC: 1.10554 cumulative IPC: 1.10593 (Simulation time: 1 hr 5 min 11 sec) 
Finished CPU 0 instructions: 200000002 cycles: 180844117 cumulative IPC: 1.10592 (Simulation time: 1 hr 5 min 11 sec) 
*** Reached end of trace for Core: 2 Repeating trace: ./traces/ligra/ligra_Radii.com-lj.ungraph.gcc_6.3.0_O3.drop_5000M.length_250M.champsimtrace.xz
Heartbeat CPU 2 instructions: 250000000 cycles: 199831043 heartbeat IPC: 1.10471 cumulative IPC: 1.10592 (Simulation time: 1 hr 5 min 11 sec) 
Finished CPU 2 instructions: 200000000 cycles: 180845371 cumulative IPC: 1.10592 (Simulation time: 1 hr 5 min 11 sec) 
*** Reached end of trace for Core: 1 Repeating trace: ./traces/ligra/ligra_Radii.com-lj.ungraph.gcc_6.3.0_O3.drop_5000M.length_250M.champsimtrace.xz
Heartbeat CPU 1 instructions: 250000000 cycles: 199840367 heartbeat IPC: 1.10484 cumulative IPC: 1.10587 (Simulation time: 1 hr 5 min 12 sec) 
Finished CPU 1 instructions: 200000000 cycles: 180854602 cumulative IPC: 1.10586 (Simulation time: 1 hr 5 min 12 sec) 
*** Reached end of trace for Core: 3 Repeating trace: ./traces/ligra/ligra_Radii.com-lj.ungraph.gcc_6.3.0_O3.drop_5000M.length_250M.champsimtrace.xz
Heartbeat CPU 3 instructions: 250000000 cycles: 199855987 heartbeat IPC: 1.105 cumulative IPC: 1.10577 (Simulation time: 1 hr 5 min 12 sec) 
Finished CPU 3 instructions: 200000000 cycles: 180871370 cumulative IPC: 1.10576 (Simulation time: 1 hr 5 min 12 sec) 

ChampSim completed all CPUs

Total Simulation Statistics (not including warmup)

CPU 0 cumulative IPC: 1.10593 instructions: 200030653 cycles: 180871370
ITLB TOTAL     ACCESS:   33167273  HIT:   33167273  MISS:          0  HIT %:        100  MISS %:          0   MPKI: 0
ITLB LOAD      ACCESS:          0  HIT:          0  MISS:          0  HIT %:       -nan  MISS %:       -nan   MPKI: 0
ITLB RFO       ACCESS:          0  HIT:          0  MISS:          0  HIT %:       -nan  MISS %:       -nan   MPKI: 0
ITLB PREFETCH  ACCESS:          0  HIT:          0  MISS:          0  HIT %:       -nan  MISS %:       -nan   MPKI: 0
ITLB WRITEBACK ACCESS:          0  HIT:          0  MISS:          0  HIT %:       -nan  MISS %:       -nan   MPKI: 0
DTLB TOTAL     ACCESS:   20702248  HIT:   20682540  MISS:      19708  HIT %:    99.9048  MISS %:  0.0951974   MPKI: 0.0985249
DTLB LOAD      ACCESS:          0  HIT:          0  MISS:          0  HIT %:       -nan  MISS %:       -nan   MPKI: 0
DTLB RFO       ACCESS:          0  HIT:          0  MISS:          0  HIT %:       -nan  MISS %:       -nan   MPKI: 0
DTLB PREFETCH  ACCESS:          0  HIT:          0  MISS:          0  HIT %:       -nan  MISS %:       -nan   MPKI: 0
DTLB WRITEBACK ACCESS:          0  HIT:          0  MISS:          0  HIT %:       -nan  MISS %:       -nan   MPKI: 0
STLB TOTAL     ACCESS:     584871  HIT:     565163  MISS:      19708  HIT %:    96.6304  MISS %:    3.36963   MPKI: 0.0985249
STLB LOAD      ACCESS:          0  HIT:          0  MISS:          0  HIT %:       -nan  MISS %:       -nan   MPKI: 0
STLB RFO       ACCESS:          0  HIT:          0  MISS:          0  HIT %:       -nan  MISS %:       -nan   MPKI: 0
STLB PREFETCH  ACCESS:          0  HIT:          0  MISS:          0  HIT %:       -nan  MISS %:       -nan   MPKI: 0
STLB WRITEBACK ACCESS:          0  HIT:          0  MISS:          0  HIT %:       -nan  MISS %:       -nan   MPKI: 0
L1D TOTAL     ACCESS:   17319580  HIT:   16056142  MISS:    1263438  HIT %:    92.7051  MISS %:    7.29485   MPKI: 6.31622
L1D LOAD      ACCESS:   15375757  HIT:   15358647  MISS:      17110  HIT %:    99.8887  MISS %:   0.111279   MPKI: 0.0855369
L1D RFO       ACCESS:    1365739  HIT:     697495  MISS:     668244  HIT %:    51.0709  MISS %:    48.9291   MPKI: 3.34071
L1D PREFETCH  ACCESS:     578084  HIT:          0  MISS:     578084  HIT %:          0  MISS %:        100   MPKI: 2.88998
L1D WRITEBACK ACCESS:          0  HIT:          0  MISS:          0  HIT %:       -nan  MISS %:       -nan   MPKI: 0
L1I TOTAL     ACCESS:   33185730  HIT:   33185730  MISS:          0  HIT %:        100  MISS %:          0   MPKI: 0
L1I LOAD      ACCESS:   33185730  HIT:   33185730  MISS:          0  HIT %:        100  MISS %:          0   MPKI: 0
L1I RFO       ACCESS:          0  HIT:          0  MISS:          0  HIT %:       -nan  MISS %:       -nan   MPKI: 0
L1I PREFETCH  ACCESS:          0  HIT:          0  MISS:          0  HIT %:       -nan  MISS %:       -nan   MPKI: 0
L1I WRITEBACK ACCESS:          0  HIT:          0  MISS:          0  HIT %:       -nan  MISS %:       -nan   MPKI: 0
L2C TOTAL     ACCESS:    1951384  HIT:     635016  MISS:    1316368  HIT %:    32.5418  MISS %:    67.4582   MPKI: 6.58083
L2C LOAD      ACCESS:      11501  HIT:       1698  MISS:       9803  HIT %:    14.7639  MISS %:    85.2361   MPKI: 0.0490075
L2C RFO       ACCESS:     668244  HIT:          0  MISS:     668244  HIT %:          0  MISS %:        100   MPKI: 3.34071
L2C PREFETCH  ACCESS:     583693  HIT:          0  MISS:     583693  HIT %:          0  MISS %:        100   MPKI: 2.91802
L2C WRITEBACK ACCESS:     668235  HIT:     616146  MISS:      52089  HIT %:     92.205  MISS %:    7.79501   MPKI: 0.260405
PSCL5 TOTAL     ACCESS:      19708  HIT:      19708  MISS:          0  HIT %:        100  MISS %:          0   MPKI: 0
PSCL5 LOAD      ACCESS:          0  HIT:          0  MISS:          0  HIT %:       -nan  MISS %:       -nan   MPKI: 0
PSCL5 RFO       ACCESS:          0  HIT:          0  MISS:          0  HIT %:       -nan  MISS %:       -nan   MPKI: 0
PSCL5 PREFETCH  ACCESS:          0  HIT:          0  MISS:          0  HIT %:       -nan  MISS %:       -nan   MPKI: 0
PSCL5 WRITEBACK ACCESS:          0  HIT:          0  MISS:          0  HIT %:       -nan  MISS %:       -nan   MPKI: 0
PSCL4 TOTAL     ACCESS:      19708  HIT:      19708  MISS:          0  HIT %:        100  MISS %:          0   MPKI: 0
PSCL4 LOAD      ACCESS:          0  HIT:          0  MISS:          0  HIT %:       -nan  MISS %:       -nan   MPKI: 0
PSCL4 RFO       ACCESS:          0  HIT:          0  MISS:          0  HIT %:       -nan  MISS %:       -nan   MPKI: 0
PSCL4 PREFETCH  ACCESS:          0  HIT:          0  MISS:          0  HIT %:       -nan  MISS %:       -nan   MPKI: 0
PSCL4 WRITEBACK ACCESS:          0  HIT:          0  MISS:          0  HIT %:       -nan  MISS %:       -nan   MPKI: 0
PSCL3 TOTAL     ACCESS:      19708  HIT:      19708  MISS:          0  HIT %:        100  MISS %:          0   MPKI: 0
PSCL3 LOAD      ACCESS:          0  HIT:          0  MISS:          0  HIT %:       -nan  MISS %:       -nan   MPKI: 0
PSCL3 RFO       ACCESS:          0  HIT:          0  MISS:          0  HIT %:       -nan  MISS %:       -nan   MPKI: 0
PSCL3 PREFETCH  ACCESS:          0  HIT:          0  MISS:          0  HIT %:       -nan  MISS %:       -nan   MPKI: 0
PSCL3 WRITEBACK ACCESS:          0  HIT:          0  MISS:          0  HIT %:       -nan  MISS %:       -nan   MPKI: 0
PSCL2 TOTAL     ACCESS:      19708  HIT:      19667  MISS:         41  HIT %:     99.792  MISS %:   0.208037   MPKI: 0.000204969
PSCL2 LOAD      ACCESS:          0  HIT:          0  MISS:          0  HIT %:       -nan  MISS %:       -nan   MPKI: 0
PSCL2 RFO       ACCESS:          0  HIT:          0  MISS:          0  HIT %:       -nan  MISS %:       -nan   MPKI: 0
PSCL2 PREFETCH  ACCESS:          0  HIT:          0  MISS:          0  HIT %:       -nan  MISS %:       -nan   MPKI: 0
PSCL2 WRITEBACK ACCESS:          0  HIT:          0  MISS:          0  HIT %:       -nan  MISS %:       -nan   MPKI: 0
=== CPU 0 L1D Prefetcher Statistics ===
[MLOP] History of tracked zone:
IIIIIIIIIIIIIIIIIIIIIIIIIIIIIIIIIIIIIIIIIIIIIIIIIIIIIIIIIIIIIIII
A11IIIIIIIIIIIIIIIIIIIIIIIIIIIIIIIIIIIIIIIIIIIIIIIIIIIIIIIIIIIII
AA11IIIIIIIIIIIIIIIIIIIIIIIIIIIIIIIIIIIIIIIIIIIIIIIIIIIIIIIIIIII
AAA11IIIIIIIIIIIIIIIIIIIIIIIIIIIIIIIIIIIIIIIIIIIIIIIIIIIIIIIIIII
AAAA11IIIIIIIIIIIIIIIIIIIIIIIIIIIIIIIIIIIIIIIIIIIIIIIIIIIIIIIIII
AAAAA11IIIIIIIIIIIIIIIIIIIIIIIIIIIIIIIIIIIIIIIIIIIIIIIIIIIIIIIII
AAAAAA11IIIIIIIIIIIIIIIIIIIIIIIIIIIIIIIIIIIIIIIIIIIIIIIIIIIIIIII
AAAAAAA11IIIIIIIIIIIIIIIIIIIIIIIIIIIIIIIIIIIIIIIIIIIIIIIIIIIIIII
AAAAAAAA11IIIIIIIIIIIIIIIIIIIIIIIIIIIIIIIIIIIIIIIIIIIIIIIIIIIIII
AAAAAAAAA11IIIIIIIIIIIIIIIIIIIIIIIIIIIIIIIIIIIIIIIIIIIIIIIIIIIII
AAAAAAAAAA11IIIIIIIIIIIIIIIIIIIIIIIIIIIIIIIIIIIIIIIIIIIIIIIIIIII
AAAAAAAAAAA11IIIIIIIIIIIIIIIIIIIIIIIIIIIIIIIIIIIIIIIIIIIIIIIIIII
AAAAAAAAAAAA11IIIIIIIIIIIIIIIIIIIIIIIIIIIIIIIIIIIIIIIIIIIIIIIIII
AAAAAAAAAAAAA11IIIIIIIIIIIIIIIIIIIIIIIIIIIIIIIIIIIIIIIIIIIIIIIII
AAAAAAAAAAAAAA11IIIIIIIIIIIIIIIIIIIIIIIIIIIIIIIIIIIIIIIIIIIIIIII
AAAAAAAAAAAAAAA11IIIIIIIIIIIIIIIIIIIIIIIIIIIIIIIIIIIIIIIIIIIIIII
AAAAAAAAAAAAAAAA11IIIIIIIIIIIIIIIIIIIIIIIIIIIIIIIIIIIIIIIIIIIIII
AAAAAAAAAAAAAAAAA11IIIIIIIIIIIIIIIIIIIIIIIIIIIIIIIIIIIIIIIIIIIII
AAAAAAAAAAAAAAAAAA11IIIIIIIIIIIIIIIIIIIIIIIIIIIIIIIIIIIIIIIIIIII
AAAAAAAAAAAAAAAAAAA11IIIIIIIIIIIIIIIIIIIIIIIIIIIIIIIIIIIIIIIIIII
AAAAAAAAAAAAAAAAAAAA11IIIIIIIIIIIIIIIIIIIIIIIIIIIIIIIIIIIIIIIIII
AAAAAAAAAAAAAAAAAAAAA11IIIIIIIIIIIIIIIIIIIIIIIIIIIIIIIIIIIIIIIII
AAAAAAAAAAAAAAAAAAAAAA11IIIIIIIIIIIIIIIIIIIIIIIIIIIIIIIIIIIIIIII
AAAAAAAAAAAAAAAAAAAAAAA11IIIIIIIIIIIIIIIIIIIIIIIIIIIIIIIIIIIIIII
AAAAAAAAAAAAAAAAAAAAAAAA11IIIIIIIIIIIIIIIIIIIIIIIIIIIIIIIIIIIIII
AAAAAAAAAAAAAAAAAAAAAAAAA11IIIIIIIIIIIIIIIIIIIIIIIIIIIIIIIIIIIII
AAAAAAAAAAAAAAAAAAAAAAAAAA11IIIIIIIIIIIIIIIIIIIIIIIIIIIIIIIIIIII
AAAAAAAAAAAAAAAAAAAAAAAAAAA11IIIIIIIIIIIIIIIIIIIIIIIIIIIIIIIIIII
AAAAAAAAAAAAAAAAAAAAAAAAAAAA11IIIIIIIIIIIIIIIIIIIIIIIIIIIIIIIIII
AAAAAAAAAAAAAAAAAAAAAAAAAAAAA11IIIIIIIIIIIIIIIIIIIIIIIIIIIIIIIII
AAAAAAAAAAAAAAAAAAAAAAAAAAAAAA11IIIIIIIIIIIIIIIIIIIIIIIIIIIIIIII
AAAAAAAAAAAAAAAAAAAAAAAAAAAAAAA11IIIIIIIIIIIIIIIIIIIIIIIIIIIIIII
AAAAAAAAAAAAAAAAAAAAAAAAAAAAAAAA11IIIIIIIIIIIIIIIIIIIIIIIIIIIIII
AAAAAAAAAAAAAAAAAAAAAAAAAAAAAAAAA11IIIIIIIIIIIIIIIIIIIIIIIIIIIII
AAAAAAAAAAAAAAAAAAAAAAAAAAAAAAAAAA11IIIIIIIIIIIIIIIIIIIIIIIIIIII
AAAAAAAAAAAAAAAAAAAAAAAAAAAAAAAAAAA11IIIIIIIIIIIIIIIIIIIIIIIIIII
AAAAAAAAAAAAAAAAAAAAAAAAAAAAAAAAAAAA11IIIIIIIIIIIIIIIIIIIIIIIIII
AAAAAAAAAAAAAAAAAAAAAAAAAAAAAAAAAAAAA11IIIIIIIIIIIIIIIIIIIIIIIII
AAAAAAAAAAAAAAAAAAAAAAAAAAAAAAAAAAAAAA11IIIIIIIIIIIIIIIIIIIIIIII
AAAAAAAAAAAAAAAAAAAAAAAAAAAAAAAAAAAAAAA11IIIIIIIIIIIIIIIIIIIIIII
AAAAAAAAAAAAAAAAAAAAAAAAAAAAAAAAAAAAAAAA11IIIIIIIIIIIIIIIIIIIIII
AAAAAAAAAAAAAAAAAAAAAAAAAAAAAAAAAAAAAAAAA11IIIIIIIIIIIIIIIIIIIII
AAAAAAAAAAAAAAAAAAAAAAAAAAAAAAAAAAAAAAAAAA11IIIIIIIIIIIIIIIIIIII
AAAAAAAAAAAAAAAAAAAAAAAAAAAAAAAAAAAAAAAAAAA11IIIIIIIIIIIIIIIIIII
AAAAAAAAAAAAAAAAAAAAAAAAAAAAAAAAAAAAAAAAAAAA11IIIIIIIIIIIIIIIIII
AAAAAAAAAAAAAAAAAAAAAAAAAAAAAAAAAAAAAAAAAAAAA11IIIIIIIIIIIIIIIII
AAAAAAAAAAAAAAAAAAAAAAAAAAAAAAAAAAAAAAAAAAAAAA11IIIIIIIIIIIIIIII
AAAAAAAAAAAAAAAAAAAAAAAAAAAAAAAAAAAAAAAAAAAAAAA11IIIIIIIIIIIIIII
AAAAAAAAAAAAAAAAAAAAAAAAAAAAAAAAAAAAAAAAAAAAAAAA11IIIIIIIIIIIIII
AAAAAAAAAAAAAAAAAAAAAAAAAAAAAAAAAAAAAAAAAAAAAAAAA11IIIIIIIIIIIII
AAAAAAAAAAAAAAAAAAAAAAAAAAAAAAAAAAAAAAAAAAAAAAAAAA11IIIIIIIIIIII
AAAAAAAAAAAAAAAAAAAAAAAAAAAAAAAAAAAAAAAAAAAAAAAAAAA11IIIIIIIIIII
AAAAAAAAAAAAAAAAAAAAAAAAAAAAAAAAAAAAAAAAAAAAAAAAAAAA11IIIIIIIIII
AAAAAAAAAAAAAAAAAAAAAAAAAAAAAAAAAAAAAAAAAAAAAAAAAAAAA11IIIIIIIII
AAAAAAAAAAAAAAAAAAAAAAAAAAAAAAAAAAAAAAAAAAAAAAAAAAAAAA11IIIIIIII
AAAAAAAAAAAAAAAAAAAAAAAAAAAAAAAAAAAAAAAAAAAAAAAAAAAAAAA11IIIIIII
AAAAAAAAAAAAAAAAAAAAAAAAAAAAAAAAAAAAAAAAAAAAAAAAAAAAAAAA11IIIIII
AAAAAAAAAAAAAAAAAAAAAAAAAAAAAAAAAAAAAAAAAAAAAAAAAAAAAAAAA11IIIII
AAAAAAAAAAAAAAAAAAAAAAAAAAAAAAAAAAAAAAAAAAAAAAAAAAAAAAAAAA11IIII
AAAAAAAAAAAAAAAAAAAAAAAAAAAAAAAAAAAAAAAAAAAAAAAAAAAAAAAAAAA11III
AAAAAAAAAAAAAAAAAAAAAAAAAAAAAAAAAAAAAAAAAAAAAAAAAAAAAAAAAAAA11II
AAAAAAAAAAAAAAAAAAAAAAAAAAAAAAAAAAAAAAAAAAAAAAAAAAAAAAAAAAAAA11I
AAAAAAAAAAAAAAAAAAAAAAAAAAAAAAAAAAAAAAAAAAAAAAAAAAAAAAAAAAAAAA11
AAAAAAAAAAAAAAAAAAAAAAAAAAAAAAAAAAAAAAAAAAAAAAAAAAAAAAAAAAAAAAA1
AAAAAAAAAAAAAAAAAAAAAAAAAAAAAAAAAAAAAAAAAAAAAAAAAAAAAAAAAAAAAAAA
[MLOP] Prefetch Degree Mean: 2.94118
[MLOP] Prefetch Degree SD: 0.235294
[MLOP] Max Score Left Mean (%): 89.8471
[MLOP] Max Score Left SD (%): 3.41039
[MLOP] Max Score Right Mean (%): 100
[MLOP] Max Score Right SD (%): 0
LLC TOTAL     ACCESS:    1933830  HIT:     640555  MISS:    1293275  HIT %:    33.1236  MISS %:    66.8764   MPKI: 6.46538
LLC LOAD      ACCESS:       9803  HIT:        535  MISS:       9268  HIT %:    5.45751  MISS %:    94.5425   MPKI: 0.0463329
LLC RFO       ACCESS:     668244  HIT:          0  MISS:     668244  HIT %:          0  MISS %:        100   MPKI: 3.34071
LLC PREFETCH  ACCESS:     583693  HIT:          0  MISS:     583693  HIT %:          0  MISS %:        100   MPKI: 2.91802
LLC WRITEBACK ACCESS:     669551  HIT:     640013  MISS:      29538  HIT %:    95.5884  MISS %:    4.41161   MPKI: 0.147667

RAW hits: 0
Loads Generated: 37856669
Loads sent to L1D: 37856668
Stores Generated: 5345955
Stores sent to L1D: 5345956

CPU 1 cumulative IPC: 1.10585 instructions: 200016129 cycles: 180871370
ITLB TOTAL     ACCESS:   33165195  HIT:   33165195  MISS:          0  HIT %:        100  MISS %:          0   MPKI: 0
ITLB LOAD      ACCESS:          0  HIT:          0  MISS:          0  HIT %:       -nan  MISS %:       -nan   MPKI: 0
ITLB RFO       ACCESS:          0  HIT:          0  MISS:          0  HIT %:       -nan  MISS %:       -nan   MPKI: 0
ITLB PREFETCH  ACCESS:          0  HIT:          0  MISS:          0  HIT %:       -nan  MISS %:       -nan   MPKI: 0
ITLB WRITEBACK ACCESS:          0  HIT:          0  MISS:          0  HIT %:       -nan  MISS %:       -nan   MPKI: 0
DTLB TOTAL     ACCESS:   20701007  HIT:   20681300  MISS:      19707  HIT %:    99.9048  MISS %:  0.0951983   MPKI: 0.0985271
DTLB LOAD      ACCESS:          0  HIT:          0  MISS:          0  HIT %:       -nan  MISS %:       -nan   MPKI: 0
DTLB RFO       ACCESS:          0  HIT:          0  MISS:          0  HIT %:       -nan  MISS %:       -nan   MPKI: 0
DTLB PREFETCH  ACCESS:          0  HIT:          0  MISS:          0  HIT %:       -nan  MISS %:       -nan   MPKI: 0
DTLB WRITEBACK ACCESS:          0  HIT:          0  MISS:          0  HIT %:       -nan  MISS %:       -nan   MPKI: 0
STLB TOTAL     ACCESS:     584827  HIT:     565120  MISS:      19707  HIT %:    96.6303  MISS %:    3.36971   MPKI: 0.0985271
STLB LOAD      ACCESS:          0  HIT:          0  MISS:          0  HIT %:       -nan  MISS %:       -nan   MPKI: 0
STLB RFO       ACCESS:          0  HIT:          0  MISS:          0  HIT %:       -nan  MISS %:       -nan   MPKI: 0
STLB PREFETCH  ACCESS:          0  HIT:          0  MISS:          0  HIT %:       -nan  MISS %:       -nan   MPKI: 0
STLB WRITEBACK ACCESS:          0  HIT:          0  MISS:          0  HIT %:       -nan  MISS %:       -nan   MPKI: 0
L1D TOTAL     ACCESS:   17318117  HIT:   16054776  MISS:    1263341  HIT %:    92.7051  MISS %:    7.29491   MPKI: 6.3162
L1D LOAD      ACCESS:   15375384  HIT:   15358256  MISS:      17128  HIT %:    99.8886  MISS %:   0.111399   MPKI: 0.0856331
L1D RFO       ACCESS:    1364710  HIT:     696520  MISS:     668190  HIT %:    51.0379  MISS %:    48.9621   MPKI: 3.34068
L1D PREFETCH  ACCESS:     578023  HIT:          0  MISS:     578023  HIT %:          0  MISS %:        100   MPKI: 2.88988
L1D WRITEBACK ACCESS:          0  HIT:          0  MISS:          0  HIT %:       -nan  MISS %:       -nan   MPKI: 0
L1I TOTAL     ACCESS:   33183650  HIT:   33183650  MISS:          0  HIT %:        100  MISS %:          0   MPKI: 0
L1I LOAD      ACCESS:   33183650  HIT:   33183650  MISS:          0  HIT %:        100  MISS %:          0   MPKI: 0
L1I RFO       ACCESS:          0  HIT:          0  MISS:          0  HIT %:       -nan  MISS %:       -nan   MPKI: 0
L1I PREFETCH  ACCESS:          0  HIT:          0  MISS:          0  HIT %:       -nan  MISS %:       -nan   MPKI: 0
L1I WRITEBACK ACCESS:          0  HIT:          0  MISS:          0  HIT %:       -nan  MISS %:       -nan   MPKI: 0
L2C TOTAL     ACCESS:    1951227  HIT:     638066  MISS:    1313161  HIT %:    32.7008  MISS %:    67.2992   MPKI: 6.56528
L2C LOAD      ACCESS:      11501  HIT:       1622  MISS:       9879  HIT %:    14.1031  MISS %:    85.8969   MPKI: 0.049391
L2C RFO       ACCESS:     668191  HIT:          0  MISS:     668191  HIT %:          0  MISS %:        100   MPKI: 3.34069
L2C PREFETCH  ACCESS:     583650  HIT:          0  MISS:     583650  HIT %:          0  MISS %:        100   MPKI: 2.91801
L2C WRITEBACK ACCESS:     668175  HIT:     619272  MISS:      48903  HIT %:    92.6811  MISS %:    7.31889   MPKI: 0.244495
PSCL5 TOTAL     ACCESS:      19707  HIT:      19707  MISS:          0  HIT %:        100  MISS %:          0   MPKI: 0
PSCL5 LOAD      ACCESS:          0  HIT:          0  MISS:          0  HIT %:       -nan  MISS %:       -nan   MPKI: 0
PSCL5 RFO       ACCESS:          0  HIT:          0  MISS:          0  HIT %:       -nan  MISS %:       -nan   MPKI: 0
PSCL5 PREFETCH  ACCESS:          0  HIT:          0  MISS:          0  HIT %:       -nan  MISS %:       -nan   MPKI: 0
PSCL5 WRITEBACK ACCESS:          0  HIT:          0  MISS:          0  HIT %:       -nan  MISS %:       -nan   MPKI: 0
PSCL4 TOTAL     ACCESS:      19707  HIT:      19707  MISS:          0  HIT %:        100  MISS %:          0   MPKI: 0
PSCL4 LOAD      ACCESS:          0  HIT:          0  MISS:          0  HIT %:       -nan  MISS %:       -nan   MPKI: 0
PSCL4 RFO       ACCESS:          0  HIT:          0  MISS:          0  HIT %:       -nan  MISS %:       -nan   MPKI: 0
PSCL4 PREFETCH  ACCESS:          0  HIT:          0  MISS:          0  HIT %:       -nan  MISS %:       -nan   MPKI: 0
PSCL4 WRITEBACK ACCESS:          0  HIT:          0  MISS:          0  HIT %:       -nan  MISS %:       -nan   MPKI: 0
PSCL3 TOTAL     ACCESS:      19707  HIT:      19707  MISS:          0  HIT %:        100  MISS %:          0   MPKI: 0
PSCL3 LOAD      ACCESS:          0  HIT:          0  MISS:          0  HIT %:       -nan  MISS %:       -nan   MPKI: 0
PSCL3 RFO       ACCESS:          0  HIT:          0  MISS:          0  HIT %:       -nan  MISS %:       -nan   MPKI: 0
PSCL3 PREFETCH  ACCESS:          0  HIT:          0  MISS:          0  HIT %:       -nan  MISS %:       -nan   MPKI: 0
PSCL3 WRITEBACK ACCESS:          0  HIT:          0  MISS:          0  HIT %:       -nan  MISS %:       -nan   MPKI: 0
PSCL2 TOTAL     ACCESS:      19707  HIT:      19666  MISS:         41  HIT %:     99.792  MISS %:   0.208048   MPKI: 0.000204983
PSCL2 LOAD      ACCESS:          0  HIT:          0  MISS:          0  HIT %:       -nan  MISS %:       -nan   MPKI: 0
PSCL2 RFO       ACCESS:          0  HIT:          0  MISS:          0  HIT %:       -nan  MISS %:       -nan   MPKI: 0
PSCL2 PREFETCH  ACCESS:          0  HIT:          0  MISS:          0  HIT %:       -nan  MISS %:       -nan   MPKI: 0
PSCL2 WRITEBACK ACCESS:          0  HIT:          0  MISS:          0  HIT %:       -nan  MISS %:       -nan   MPKI: 0
=== CPU 1 L1D Prefetcher Statistics ===
[MLOP] History of tracked zone:
IIIIIIIIIIIIIIIIIIIIIIIIIIIIIIIIIIIIIIIIIIIIIIIIIIIIIIIIIIIIIIII
A11IIIIIIIIIIIIIIIIIIIIIIIIIIIIIIIIIIIIIIIIIIIIIIIIIIIIIIIIIIIII
AA11IIIIIIIIIIIIIIIIIIIIIIIIIIIIIIIIIIIIIIIIIIIIIIIIIIIIIIIIIIII
AAA11IIIIIIIIIIIIIIIIIIIIIIIIIIIIIIIIIIIIIIIIIIIIIIIIIIIIIIIIIII
AAAA11IIIIIIIIIIIIIIIIIIIIIIIIIIIIIIIIIIIIIIIIIIIIIIIIIIIIIIIIII
AAAAA11IIIIIIIIIIIIIIIIIIIIIIIIIIIIIIIIIIIIIIIIIIIIIIIIIIIIIIIII
AAAAAA11IIIIIIIIIIIIIIIIIIIIIIIIIIIIIIIIIIIIIIIIIIIIIIIIIIIIIIII
AAAAAAA11IIIIIIIIIIIIIIIIIIIIIIIIIIIIIIIIIIIIIIIIIIIIIIIIIIIIIII
AAAAAAAA11IIIIIIIIIIIIIIIIIIIIIIIIIIIIIIIIIIIIIIIIIIIIIIIIIIIIII
AAAAAAAAA11IIIIIIIIIIIIIIIIIIIIIIIIIIIIIIIIIIIIIIIIIIIIIIIIIIIII
AAAAAAAAAA11IIIIIIIIIIIIIIIIIIIIIIIIIIIIIIIIIIIIIIIIIIIIIIIIIIII
AAAAAAAAAAA11IIIIIIIIIIIIIIIIIIIIIIIIIIIIIIIIIIIIIIIIIIIIIIIIIII
AAAAAAAAAAAA11IIIIIIIIIIIIIIIIIIIIIIIIIIIIIIIIIIIIIIIIIIIIIIIIII
AAAAAAAAAAAAA11IIIIIIIIIIIIIIIIIIIIIIIIIIIIIIIIIIIIIIIIIIIIIIIII
AAAAAAAAAAAAAA11IIIIIIIIIIIIIIIIIIIIIIIIIIIIIIIIIIIIIIIIIIIIIIII
AAAAAAAAAAAAAAA11IIIIIIIIIIIIIIIIIIIIIIIIIIIIIIIIIIIIIIIIIIIIIII
AAAAAAAAAAAAAAAA11IIIIIIIIIIIIIIIIIIIIIIIIIIIIIIIIIIIIIIIIIIIIII
AAAAAAAAAAAAAAAAA11IIIIIIIIIIIIIIIIIIIIIIIIIIIIIIIIIIIIIIIIIIIII
AAAAAAAAAAAAAAAAAA11IIIIIIIIIIIIIIIIIIIIIIIIIIIIIIIIIIIIIIIIIIII
AAAAAAAAAAAAAAAAAAA11IIIIIIIIIIIIIIIIIIIIIIIIIIIIIIIIIIIIIIIIIII
AAAAAAAAAAAAAAAAAAAA11IIIIIIIIIIIIIIIIIIIIIIIIIIIIIIIIIIIIIIIIII
AAAAAAAAAAAAAAAAAAAAA11IIIIIIIIIIIIIIIIIIIIIIIIIIIIIIIIIIIIIIIII
AAAAAAAAAAAAAAAAAAAAAA11IIIIIIIIIIIIIIIIIIIIIIIIIIIIIIIIIIIIIIII
AAAAAAAAAAAAAAAAAAAAAAA11IIIIIIIIIIIIIIIIIIIIIIIIIIIIIIIIIIIIIII
AAAAAAAAAAAAAAAAAAAAAAAA11IIIIIIIIIIIIIIIIIIIIIIIIIIIIIIIIIIIIII
AAAAAAAAAAAAAAAAAAAAAAAAA11IIIIIIIIIIIIIIIIIIIIIIIIIIIIIIIIIIIII
AAAAAAAAAAAAAAAAAAAAAAAAAA11IIIIIIIIIIIIIIIIIIIIIIIIIIIIIIIIIIII
AAAAAAAAAAAAAAAAAAAAAAAAAAA11IIIIIIIIIIIIIIIIIIIIIIIIIIIIIIIIIII
AAAAAAAAAAAAAAAAAAAAAAAAAAAA11IIIIIIIIIIIIIIIIIIIIIIIIIIIIIIIIII
AAAAAAAAAAAAAAAAAAAAAAAAAAAAA11IIIIIIIIIIIIIIIIIIIIIIIIIIIIIIIII
AAAAAAAAAAAAAAAAAAAAAAAAAAAAAA11IIIIIIIIIIIIIIIIIIIIIIIIIIIIIIII
AAAAAAAAAAAAAAAAAAAAAAAAAAAAAAA11IIIIIIIIIIIIIIIIIIIIIIIIIIIIIII
AAAAAAAAAAAAAAAAAAAAAAAAAAAAAAAA11IIIIIIIIIIIIIIIIIIIIIIIIIIIIII
AAAAAAAAAAAAAAAAAAAAAAAAAAAAAAAAA11IIIIIIIIIIIIIIIIIIIIIIIIIIIII
AAAAAAAAAAAAAAAAAAAAAAAAAAAAAAAAAA11IIIIIIIIIIIIIIIIIIIIIIIIIIII
AAAAAAAAAAAAAAAAAAAAAAAAAAAAAAAAAAA11IIIIIIIIIIIIIIIIIIIIIIIIIII
AAAAAAAAAAAAAAAAAAAAAAAAAAAAAAAAAAAA11IIIIIIIIIIIIIIIIIIIIIIIIII
AAAAAAAAAAAAAAAAAAAAAAAAAAAAAAAAAAAAA11IIIIIIIIIIIIIIIIIIIIIIIII
AAAAAAAAAAAAAAAAAAAAAAAAAAAAAAAAAAAAAA11IIIIIIIIIIIIIIIIIIIIIIII
AAAAAAAAAAAAAAAAAAAAAAAAAAAAAAAAAAAAAAA11IIIIIIIIIIIIIIIIIIIIIII
AAAAAAAAAAAAAAAAAAAAAAAAAAAAAAAAAAAAAAAA11IIIIIIIIIIIIIIIIIIIIII
AAAAAAAAAAAAAAAAAAAAAAAAAAAAAAAAAAAAAAAAA11IIIIIIIIIIIIIIIIIIIII
AAAAAAAAAAAAAAAAAAAAAAAAAAAAAAAAAAAAAAAAAA11IIIIIIIIIIIIIIIIIIII
AAAAAAAAAAAAAAAAAAAAAAAAAAAAAAAAAAAAAAAAAAA11IIIIIIIIIIIIIIIIIII
AAAAAAAAAAAAAAAAAAAAAAAAAAAAAAAAAAAAAAAAAAAA11IIIIIIIIIIIIIIIIII
AAAAAAAAAAAAAAAAAAAAAAAAAAAAAAAAAAAAAAAAAAAAA11IIIIIIIIIIIIIIIII
AAAAAAAAAAAAAAAAAAAAAAAAAAAAAAAAAAAAAAAAAAAAAA11IIIIIIIIIIIIIIII
AAAAAAAAAAAAAAAAAAAAAAAAAAAAAAAAAAAAAAAAAAAAAAA11IIIIIIIIIIIIIII
AAAAAAAAAAAAAAAAAAAAAAAAAAAAAAAAAAAAAAAAAAAAAAAA11IIIIIIIIIIIIII
AAAAAAAAAAAAAAAAAAAAAAAAAAAAAAAAAAAAAAAAAAAAAAAAA11IIIIIIIIIIIII
AAAAAAAAAAAAAAAAAAAAAAAAAAAAAAAAAAAAAAAAAAAAAAAAAA11IIIIIIIIIIII
AAAAAAAAAAAAAAAAAAAAAAAAAAAAAAAAAAAAAAAAAAAAAAAAAAA11IIIIIIIIIII
AAAAAAAAAAAAAAAAAAAAAAAAAAAAAAAAAAAAAAAAAAAAAAAAAAAA11IIIIIIIIII
AAAAAAAAAAAAAAAAAAAAAAAAAAAAAAAAAAAAAAAAAAAAAAAAAAAAA11IIIIIIIII
AAAAAAAAAAAAAAAAAAAAAAAAAAAAAAAAAAAAAAAAAAAAAAAAAAAAAA11IIIIIIII
AAAAAAAAAAAAAAAAAAAAAAAAAAAAAAAAAAAAAAAAAAAAAAAAAAAAAAA11IIIIIII
AAAAAAAAAAAAAAAAAAAAAAAAAAAAAAAAAAAAAAAAAAAAAAAAAAAAAAAA11IIIIII
AAAAAAAAAAAAAAAAAAAAAAAAAAAAAAAAAAAAAAAAAAAAAAAAAAAAAAAAA11IIIII
AAAAAAAAAAAAAAAAAAAAAAAAAAAAAAAAAAAAAAAAAAAAAAAAAAAAAAAAAA11IIII
AAAAAAAAAAAAAAAAAAAAAAAAAAAAAAAAAAAAAAAAAAAAAAAAAAAAAAAAAAA11III
AAAAAAAAAAAAAAAAAAAAAAAAAAAAAAAAAAAAAAAAAAAAAAAAAAAAAAAAAAAA11II
AAAAAAAAAAAAAAAAAAAAAAAAAAAAAAAAAAAAAAAAAAAAAAAAAAAAAAAAAAAAA11I
AAAAAAAAAAAAAAAAAAAAAAAAAAAAAAAAAAAAAAAAAAAAAAAAAAAAAAAAAAAAAA11
AAAAAAAAAAAAAAAAAAAAAAAAAAAAAAAAAAAAAAAAAAAAAAAAAAAAAAAAAAAAAAA1
AAAAAAAAAAAAAAAAAAAAAAAAAAAAAAAAAAAAAAAAAAAAAAAAAAAAAAAAAAAAAAAA
[MLOP] Prefetch Degree Mean: 2.94118
[MLOP] Prefetch Degree SD: 0.235294
[MLOP] Max Score Left Mean (%): 88.7765
[MLOP] Max Score Left SD (%): 3.74033
[MLOP] Max Score Right Mean (%): 100
[MLOP] Max Score Right SD (%): 0
LLC TOTAL     ACCESS:    1933974  HIT:     640459  MISS:    1293515  HIT %:    33.1162  MISS %:    66.8838   MPKI: 6.46705
LLC LOAD      ACCESS:       9879  HIT:        609  MISS:       9270  HIT %:    6.16459  MISS %:    93.8354   MPKI: 0.0463463
LLC RFO       ACCESS:     668191  HIT:          0  MISS:     668191  HIT %:          0  MISS %:        100   MPKI: 3.34069
LLC PREFETCH  ACCESS:     583650  HIT:          0  MISS:     583650  HIT %:          0  MISS %:        100   MPKI: 2.91801
LLC WRITEBACK ACCESS:     669716  HIT:     639847  MISS:      29869  HIT %:      95.54  MISS %:    4.45995   MPKI: 0.149333

RAW hits: 0
Loads Generated: 37853938
Loads sent to L1D: 37853936
Stores Generated: 5345530
Stores sent to L1D: 5345529

CPU 2 cumulative IPC: 1.10591 instructions: 200028357 cycles: 180871370
ITLB TOTAL     ACCESS:   33166857  HIT:   33166857  MISS:          0  HIT %:        100  MISS %:          0   MPKI: 0
ITLB LOAD      ACCESS:          0  HIT:          0  MISS:          0  HIT %:       -nan  MISS %:       -nan   MPKI: 0
ITLB RFO       ACCESS:          0  HIT:          0  MISS:          0  HIT %:       -nan  MISS %:       -nan   MPKI: 0
ITLB PREFETCH  ACCESS:          0  HIT:          0  MISS:          0  HIT %:       -nan  MISS %:       -nan   MPKI: 0
ITLB WRITEBACK ACCESS:          0  HIT:          0  MISS:          0  HIT %:       -nan  MISS %:       -nan   MPKI: 0
DTLB TOTAL     ACCESS:   20704242  HIT:   20684535  MISS:      19707  HIT %:    99.9048  MISS %:  0.0951834   MPKI: 0.098521
DTLB LOAD      ACCESS:          0  HIT:          0  MISS:          0  HIT %:       -nan  MISS %:       -nan   MPKI: 0
DTLB RFO       ACCESS:          0  HIT:          0  MISS:          0  HIT %:       -nan  MISS %:       -nan   MPKI: 0
DTLB PREFETCH  ACCESS:          0  HIT:          0  MISS:          0  HIT %:       -nan  MISS %:       -nan   MPKI: 0
DTLB WRITEBACK ACCESS:          0  HIT:          0  MISS:          0  HIT %:       -nan  MISS %:       -nan   MPKI: 0
STLB TOTAL     ACCESS:     584863  HIT:     565156  MISS:      19707  HIT %:    96.6305  MISS %:    3.36951   MPKI: 0.098521
STLB LOAD      ACCESS:          0  HIT:          0  MISS:          0  HIT %:       -nan  MISS %:       -nan   MPKI: 0
STLB RFO       ACCESS:          0  HIT:          0  MISS:          0  HIT %:       -nan  MISS %:       -nan   MPKI: 0
STLB PREFETCH  ACCESS:          0  HIT:          0  MISS:          0  HIT %:       -nan  MISS %:       -nan   MPKI: 0
STLB WRITEBACK ACCESS:          0  HIT:          0  MISS:          0  HIT %:       -nan  MISS %:       -nan   MPKI: 0
L1D TOTAL     ACCESS:   17322196  HIT:   16058774  MISS:    1263422  HIT %:    92.7063  MISS %:    7.29366   MPKI: 6.31621
L1D LOAD      ACCESS:   15378233  HIT:   15361262  MISS:      16971  HIT %:    99.8896  MISS %:   0.110357   MPKI: 0.084843
L1D RFO       ACCESS:    1365747  HIT:     697512  MISS:     668235  HIT %:    51.0718  MISS %:    48.9282   MPKI: 3.3407
L1D PREFETCH  ACCESS:     578216  HIT:          0  MISS:     578216  HIT %:          0  MISS %:        100   MPKI: 2.89067
L1D WRITEBACK ACCESS:          0  HIT:          0  MISS:          0  HIT %:       -nan  MISS %:       -nan   MPKI: 0
L1I TOTAL     ACCESS:   33185313  HIT:   33185313  MISS:          0  HIT %:        100  MISS %:          0   MPKI: 0
L1I LOAD      ACCESS:   33185313  HIT:   33185313  MISS:          0  HIT %:        100  MISS %:          0   MPKI: 0
L1I RFO       ACCESS:          0  HIT:          0  MISS:          0  HIT %:       -nan  MISS %:       -nan   MPKI: 0
L1I PREFETCH  ACCESS:          0  HIT:          0  MISS:          0  HIT %:       -nan  MISS %:       -nan   MPKI: 0
L1I WRITEBACK ACCESS:          0  HIT:          0  MISS:          0  HIT %:       -nan  MISS %:       -nan   MPKI: 0
L2C TOTAL     ACCESS:    1951361  HIT:     629835  MISS:    1321526  HIT %:    32.2767  MISS %:    67.7233   MPKI: 6.60669
L2C LOAD      ACCESS:      11501  HIT:       1703  MISS:       9798  HIT %:    14.8074  MISS %:    85.1926   MPKI: 0.0489831
L2C RFO       ACCESS:     668236  HIT:          0  MISS:     668236  HIT %:          0  MISS %:        100   MPKI: 3.34071
L2C PREFETCH  ACCESS:     583686  HIT:          0  MISS:     583686  HIT %:          0  MISS %:        100   MPKI: 2.91802
L2C WRITEBACK ACCESS:     668228  HIT:     610959  MISS:      57269  HIT %:    91.4297  MISS %:    8.57028   MPKI: 0.286304
PSCL5 TOTAL     ACCESS:      19707  HIT:      19707  MISS:          0  HIT %:        100  MISS %:          0   MPKI: 0
PSCL5 LOAD      ACCESS:          0  HIT:          0  MISS:          0  HIT %:       -nan  MISS %:       -nan   MPKI: 0
PSCL5 RFO       ACCESS:          0  HIT:          0  MISS:          0  HIT %:       -nan  MISS %:       -nan   MPKI: 0
PSCL5 PREFETCH  ACCESS:          0  HIT:          0  MISS:          0  HIT %:       -nan  MISS %:       -nan   MPKI: 0
PSCL5 WRITEBACK ACCESS:          0  HIT:          0  MISS:          0  HIT %:       -nan  MISS %:       -nan   MPKI: 0
PSCL4 TOTAL     ACCESS:      19707  HIT:      19707  MISS:          0  HIT %:        100  MISS %:          0   MPKI: 0
PSCL4 LOAD      ACCESS:          0  HIT:          0  MISS:          0  HIT %:       -nan  MISS %:       -nan   MPKI: 0
PSCL4 RFO       ACCESS:          0  HIT:          0  MISS:          0  HIT %:       -nan  MISS %:       -nan   MPKI: 0
PSCL4 PREFETCH  ACCESS:          0  HIT:          0  MISS:          0  HIT %:       -nan  MISS %:       -nan   MPKI: 0
PSCL4 WRITEBACK ACCESS:          0  HIT:          0  MISS:          0  HIT %:       -nan  MISS %:       -nan   MPKI: 0
PSCL3 TOTAL     ACCESS:      19707  HIT:      19707  MISS:          0  HIT %:        100  MISS %:          0   MPKI: 0
PSCL3 LOAD      ACCESS:          0  HIT:          0  MISS:          0  HIT %:       -nan  MISS %:       -nan   MPKI: 0
PSCL3 RFO       ACCESS:          0  HIT:          0  MISS:          0  HIT %:       -nan  MISS %:       -nan   MPKI: 0
PSCL3 PREFETCH  ACCESS:          0  HIT:          0  MISS:          0  HIT %:       -nan  MISS %:       -nan   MPKI: 0
PSCL3 WRITEBACK ACCESS:          0  HIT:          0  MISS:          0  HIT %:       -nan  MISS %:       -nan   MPKI: 0
PSCL2 TOTAL     ACCESS:      19707  HIT:      19666  MISS:         41  HIT %:     99.792  MISS %:   0.208048   MPKI: 0.000204971
PSCL2 LOAD      ACCESS:          0  HIT:          0  MISS:          0  HIT %:       -nan  MISS %:       -nan   MPKI: 0
PSCL2 RFO       ACCESS:          0  HIT:          0  MISS:          0  HIT %:       -nan  MISS %:       -nan   MPKI: 0
PSCL2 PREFETCH  ACCESS:          0  HIT:          0  MISS:          0  HIT %:       -nan  MISS %:       -nan   MPKI: 0
PSCL2 WRITEBACK ACCESS:          0  HIT:          0  MISS:          0  HIT %:       -nan  MISS %:       -nan   MPKI: 0
=== CPU 2 L1D Prefetcher Statistics ===
[MLOP] History of tracked zone:
IIIIIIIIIIIIIIIIIIIIIIIIIIIIIIIIIIIIIIIIIIIIIIIIIIIIIIIIIIIIIIII
A11IIIIIIIIIIIIIIIIIIIIIIIIIIIIIIIIIIIIIIIIIIIIIIIIIIIIIIIIIIIII
AA11IIIIIIIIIIIIIIIIIIIIIIIIIIIIIIIIIIIIIIIIIIIIIIIIIIIIIIIIIIII
AAA11IIIIIIIIIIIIIIIIIIIIIIIIIIIIIIIIIIIIIIIIIIIIIIIIIIIIIIIIIII
AAAA11IIIIIIIIIIIIIIIIIIIIIIIIIIIIIIIIIIIIIIIIIIIIIIIIIIIIIIIIII
AAAAA11IIIIIIIIIIIIIIIIIIIIIIIIIIIIIIIIIIIIIIIIIIIIIIIIIIIIIIIII
AAAAAA11IIIIIIIIIIIIIIIIIIIIIIIIIIIIIIIIIIIIIIIIIIIIIIIIIIIIIIII
AAAAAAA11IIIIIIIIIIIIIIIIIIIIIIIIIIIIIIIIIIIIIIIIIIIIIIIIIIIIIII
AAAAAAAA11IIIIIIIIIIIIIIIIIIIIIIIIIIIIIIIIIIIIIIIIIIIIIIIIIIIIII
AAAAAAAAA11IIIIIIIIIIIIIIIIIIIIIIIIIIIIIIIIIIIIIIIIIIIIIIIIIIIII
AAAAAAAAAA11IIIIIIIIIIIIIIIIIIIIIIIIIIIIIIIIIIIIIIIIIIIIIIIIIIII
AAAAAAAAAAA11IIIIIIIIIIIIIIIIIIIIIIIIIIIIIIIIIIIIIIIIIIIIIIIIIII
AAAAAAAAAAAA11IIIIIIIIIIIIIIIIIIIIIIIIIIIIIIIIIIIIIIIIIIIIIIIIII
AAAAAAAAAAAAA11IIIIIIIIIIIIIIIIIIIIIIIIIIIIIIIIIIIIIIIIIIIIIIIII
AAAAAAAAAAAAAA11IIIIIIIIIIIIIIIIIIIIIIIIIIIIIIIIIIIIIIIIIIIIIIII
AAAAAAAAAAAAAAA11IIIIIIIIIIIIIIIIIIIIIIIIIIIIIIIIIIIIIIIIIIIIIII
AAAAAAAAAAAAAAAA11IIIIIIIIIIIIIIIIIIIIIIIIIIIIIIIIIIIIIIIIIIIIII
AAAAAAAAAAAAAAAAA11IIIIIIIIIIIIIIIIIIIIIIIIIIIIIIIIIIIIIIIIIIIII
AAAAAAAAAAAAAAAAAA11IIIIIIIIIIIIIIIIIIIIIIIIIIIIIIIIIIIIIIIIIIII
AAAAAAAAAAAAAAAAAAA11IIIIIIIIIIIIIIIIIIIIIIIIIIIIIIIIIIIIIIIIIII
AAAAAAAAAAAAAAAAAAAA11IIIIIIIIIIIIIIIIIIIIIIIIIIIIIIIIIIIIIIIIII
AAAAAAAAAAAAAAAAAAAAA11IIIIIIIIIIIIIIIIIIIIIIIIIIIIIIIIIIIIIIIII
AAAAAAAAAAAAAAAAAAAAAA11IIIIIIIIIIIIIIIIIIIIIIIIIIIIIIIIIIIIIIII
AAAAAAAAAAAAAAAAAAAAAAA11IIIIIIIIIIIIIIIIIIIIIIIIIIIIIIIIIIIIIII
AAAAAAAAAAAAAAAAAAAAAAAA11IIIIIIIIIIIIIIIIIIIIIIIIIIIIIIIIIIIIII
AAAAAAAAAAAAAAAAAAAAAAAAA11IIIIIIIIIIIIIIIIIIIIIIIIIIIIIIIIIIIII
AAAAAAAAAAAAAAAAAAAAAAAAAA11IIIIIIIIIIIIIIIIIIIIIIIIIIIIIIIIIIII
AAAAAAAAAAAAAAAAAAAAAAAAAAA11IIIIIIIIIIIIIIIIIIIIIIIIIIIIIIIIIII
AAAAAAAAAAAAAAAAAAAAAAAAAAAA11IIIIIIIIIIIIIIIIIIIIIIIIIIIIIIIIII
AAAAAAAAAAAAAAAAAAAAAAAAAAAAA11IIIIIIIIIIIIIIIIIIIIIIIIIIIIIIIII
AAAAAAAAAAAAAAAAAAAAAAAAAAAAAA11IIIIIIIIIIIIIIIIIIIIIIIIIIIIIIII
AAAAAAAAAAAAAAAAAAAAAAAAAAAAAAA11IIIIIIIIIIIIIIIIIIIIIIIIIIIIIII
AAAAAAAAAAAAAAAAAAAAAAAAAAAAAAAA11IIIIIIIIIIIIIIIIIIIIIIIIIIIIII
AAAAAAAAAAAAAAAAAAAAAAAAAAAAAAAAA11IIIIIIIIIIIIIIIIIIIIIIIIIIIII
AAAAAAAAAAAAAAAAAAAAAAAAAAAAAAAAAA11IIIIIIIIIIIIIIIIIIIIIIIIIIII
AAAAAAAAAAAAAAAAAAAAAAAAAAAAAAAAAAA11IIIIIIIIIIIIIIIIIIIIIIIIIII
AAAAAAAAAAAAAAAAAAAAAAAAAAAAAAAAAAAA11IIIIIIIIIIIIIIIIIIIIIIIIII
AAAAAAAAAAAAAAAAAAAAAAAAAAAAAAAAAAAAA11IIIIIIIIIIIIIIIIIIIIIIIII
AAAAAAAAAAAAAAAAAAAAAAAAAAAAAAAAAAAAAA11IIIIIIIIIIIIIIIIIIIIIIII
AAAAAAAAAAAAAAAAAAAAAAAAAAAAAAAAAAAAAAA11IIIIIIIIIIIIIIIIIIIIIII
AAAAAAAAAAAAAAAAAAAAAAAAAAAAAAAAAAAAAAAA11IIIIIIIIIIIIIIIIIIIIII
AAAAAAAAAAAAAAAAAAAAAAAAAAAAAAAAAAAAAAAAA11IIIIIIIIIIIIIIIIIIIII
AAAAAAAAAAAAAAAAAAAAAAAAAAAAAAAAAAAAAAAAAA11IIIIIIIIIIIIIIIIIIII
AAAAAAAAAAAAAAAAAAAAAAAAAAAAAAAAAAAAAAAAAAA11IIIIIIIIIIIIIIIIIII
AAAAAAAAAAAAAAAAAAAAAAAAAAAAAAAAAAAAAAAAAAAA11IIIIIIIIIIIIIIIIII
AAAAAAAAAAAAAAAAAAAAAAAAAAAAAAAAAAAAAAAAAAAAA11IIIIIIIIIIIIIIIII
AAAAAAAAAAAAAAAAAAAAAAAAAAAAAAAAAAAAAAAAAAAAAA11IIIIIIIIIIIIIIII
AAAAAAAAAAAAAAAAAAAAAAAAAAAAAAAAAAAAAAAAAAAAAAA11IIIIIIIIIIIIIII
AAAAAAAAAAAAAAAAAAAAAAAAAAAAAAAAAAAAAAAAAAAAAAAA11IIIIIIIIIIIIII
AAAAAAAAAAAAAAAAAAAAAAAAAAAAAAAAAAAAAAAAAAAAAAAAA11IIIIIIIIIIIII
AAAAAAAAAAAAAAAAAAAAAAAAAAAAAAAAAAAAAAAAAAAAAAAAAA11IIIIIIIIIIII
AAAAAAAAAAAAAAAAAAAAAAAAAAAAAAAAAAAAAAAAAAAAAAAAAAA11IIIIIIIIIII
AAAAAAAAAAAAAAAAAAAAAAAAAAAAAAAAAAAAAAAAAAAAAAAAAAAA11IIIIIIIIII
AAAAAAAAAAAAAAAAAAAAAAAAAAAAAAAAAAAAAAAAAAAAAAAAAAAAA11IIIIIIIII
AAAAAAAAAAAAAAAAAAAAAAAAAAAAAAAAAAAAAAAAAAAAAAAAAAAAAA11IIIIIIII
AAAAAAAAAAAAAAAAAAAAAAAAAAAAAAAAAAAAAAAAAAAAAAAAAAAAAAA11IIIIIII
AAAAAAAAAAAAAAAAAAAAAAAAAAAAAAAAAAAAAAAAAAAAAAAAAAAAAAAA11IIIIII
AAAAAAAAAAAAAAAAAAAAAAAAAAAAAAAAAAAAAAAAAAAAAAAAAAAAAAAAA11IIIII
AAAAAAAAAAAAAAAAAAAAAAAAAAAAAAAAAAAAAAAAAAAAAAAAAAAAAAAAAA11IIII
AAAAAAAAAAAAAAAAAAAAAAAAAAAAAAAAAAAAAAAAAAAAAAAAAAAAAAAAAAA11III
AAAAAAAAAAAAAAAAAAAAAAAAAAAAAAAAAAAAAAAAAAAAAAAAAAAAAAAAAAAA11II
AAAAAAAAAAAAAAAAAAAAAAAAAAAAAAAAAAAAAAAAAAAAAAAAAAAAAAAAAAAAA11I
AAAAAAAAAAAAAAAAAAAAAAAAAAAAAAAAAAAAAAAAAAAAAAAAAAAAAAAAAAAAAA11
AAAAAAAAAAAAAAAAAAAAAAAAAAAAAAAAAAAAAAAAAAAAAAAAAAAAAAAAAAAAAAA1
AAAAAAAAAAAAAAAAAAAAAAAAAAAAAAAAAAAAAAAAAAAAAAAAAAAAAAAAAAAAAAAA
[MLOP] Prefetch Degree Mean: 2.94118
[MLOP] Prefetch Degree SD: 0.235294
[MLOP] Max Score Left Mean (%): 88.6941
[MLOP] Max Score Left SD (%): 3.89939
[MLOP] Max Score Right Mean (%): 100
[MLOP] Max Score Right SD (%): 0
LLC TOTAL     ACCESS:    1934120  HIT:     640057  MISS:    1294063  HIT %:    33.0929  MISS %:    66.9071   MPKI: 6.4694
LLC LOAD      ACCESS:       9798  HIT:        531  MISS:       9267  HIT %:    5.41947  MISS %:    94.5805   MPKI: 0.0463284
LLC RFO       ACCESS:     668236  HIT:          0  MISS:     668236  HIT %:          0  MISS %:        100   MPKI: 3.34071
LLC PREFETCH  ACCESS:     583686  HIT:          0  MISS:     583686  HIT %:          0  MISS %:        100   MPKI: 2.91802
LLC WRITEBACK ACCESS:     669863  HIT:     639521  MISS:      30342  HIT %:    95.4704  MISS %:    4.52958   MPKI: 0.151688

RAW hits: 0
Loads Generated: 37856222
Loads sent to L1D: 37856222
Stores Generated: 5345891
Stores sent to L1D: 5345894

CPU 3 cumulative IPC: 1.10576 instructions: 200000000 cycles: 180871370
ITLB TOTAL     ACCESS:   33162362  HIT:   33162362  MISS:          0  HIT %:        100  MISS %:          0   MPKI: 0
ITLB LOAD      ACCESS:          0  HIT:          0  MISS:          0  HIT %:       -nan  MISS %:       -nan   MPKI: 0
ITLB RFO       ACCESS:          0  HIT:          0  MISS:          0  HIT %:       -nan  MISS %:       -nan   MPKI: 0
ITLB PREFETCH  ACCESS:          0  HIT:          0  MISS:          0  HIT %:       -nan  MISS %:       -nan   MPKI: 0
ITLB WRITEBACK ACCESS:          0  HIT:          0  MISS:          0  HIT %:       -nan  MISS %:       -nan   MPKI: 0
DTLB TOTAL     ACCESS:   20698883  HIT:   20679180  MISS:      19703  HIT %:    99.9048  MISS %:  0.0951887   MPKI: 0.098515
DTLB LOAD      ACCESS:          0  HIT:          0  MISS:          0  HIT %:       -nan  MISS %:       -nan   MPKI: 0
DTLB RFO       ACCESS:          0  HIT:          0  MISS:          0  HIT %:       -nan  MISS %:       -nan   MPKI: 0
DTLB PREFETCH  ACCESS:          0  HIT:          0  MISS:          0  HIT %:       -nan  MISS %:       -nan   MPKI: 0
DTLB WRITEBACK ACCESS:          0  HIT:          0  MISS:          0  HIT %:       -nan  MISS %:       -nan   MPKI: 0
STLB TOTAL     ACCESS:     584777  HIT:     565074  MISS:      19703  HIT %:    96.6307  MISS %:    3.36932   MPKI: 0.098515
STLB LOAD      ACCESS:          0  HIT:          0  MISS:          0  HIT %:       -nan  MISS %:       -nan   MPKI: 0
STLB RFO       ACCESS:          0  HIT:          0  MISS:          0  HIT %:       -nan  MISS %:       -nan   MPKI: 0
STLB PREFETCH  ACCESS:          0  HIT:          0  MISS:          0  HIT %:       -nan  MISS %:       -nan   MPKI: 0
STLB WRITEBACK ACCESS:          0  HIT:          0  MISS:          0  HIT %:       -nan  MISS %:       -nan   MPKI: 0
L1D TOTAL     ACCESS:   17310998  HIT:   16047768  MISS:    1263230  HIT %:    92.7027  MISS %:    7.29727   MPKI: 6.31615
L1D LOAD      ACCESS:   15372079  HIT:   15354828  MISS:      17251  HIT %:    99.8878  MISS %:   0.112223   MPKI: 0.086255
L1D RFO       ACCESS:    1361071  HIT:     692940  MISS:     668131  HIT %:    50.9114  MISS %:    49.0886   MPKI: 3.34065
L1D PREFETCH  ACCESS:     577848  HIT:          0  MISS:     577848  HIT %:          0  MISS %:        100   MPKI: 2.88924
L1D WRITEBACK ACCESS:          0  HIT:          0  MISS:          0  HIT %:       -nan  MISS %:       -nan   MPKI: 0
L1I TOTAL     ACCESS:   33180817  HIT:   33180817  MISS:          0  HIT %:        100  MISS %:          0   MPKI: 0
L1I LOAD      ACCESS:   33180817  HIT:   33180817  MISS:          0  HIT %:        100  MISS %:          0   MPKI: 0
L1I RFO       ACCESS:          0  HIT:          0  MISS:          0  HIT %:       -nan  MISS %:       -nan   MPKI: 0
L1I PREFETCH  ACCESS:          0  HIT:          0  MISS:          0  HIT %:       -nan  MISS %:       -nan   MPKI: 0
L1I WRITEBACK ACCESS:          0  HIT:          0  MISS:          0  HIT %:       -nan  MISS %:       -nan   MPKI: 0
L2C TOTAL     ACCESS:    1951062  HIT:     635539  MISS:    1315523  HIT %:     32.574  MISS %:     67.426   MPKI: 6.57761
L2C LOAD      ACCESS:      11499  HIT:       1655  MISS:       9844  HIT %:    14.3926  MISS %:    85.6074   MPKI: 0.04922
L2C RFO       ACCESS:     668131  HIT:          0  MISS:     668131  HIT %:          0  MISS %:        100   MPKI: 3.34065
L2C PREFETCH  ACCESS:     583601  HIT:          0  MISS:     583601  HIT %:          0  MISS %:        100   MPKI: 2.918
L2C WRITEBACK ACCESS:     668126  HIT:     616714  MISS:      51412  HIT %:     92.305  MISS %:    7.69496   MPKI: 0.25706
PSCL5 TOTAL     ACCESS:      19703  HIT:      19703  MISS:          0  HIT %:        100  MISS %:          0   MPKI: 0
PSCL5 LOAD      ACCESS:          0  HIT:          0  MISS:          0  HIT %:       -nan  MISS %:       -nan   MPKI: 0
PSCL5 RFO       ACCESS:          0  HIT:          0  MISS:          0  HIT %:       -nan  MISS %:       -nan   MPKI: 0
PSCL5 PREFETCH  ACCESS:          0  HIT:          0  MISS:          0  HIT %:       -nan  MISS %:       -nan   MPKI: 0
PSCL5 WRITEBACK ACCESS:          0  HIT:          0  MISS:          0  HIT %:       -nan  MISS %:       -nan   MPKI: 0
PSCL4 TOTAL     ACCESS:      19703  HIT:      19703  MISS:          0  HIT %:        100  MISS %:          0   MPKI: 0
PSCL4 LOAD      ACCESS:          0  HIT:          0  MISS:          0  HIT %:       -nan  MISS %:       -nan   MPKI: 0
PSCL4 RFO       ACCESS:          0  HIT:          0  MISS:          0  HIT %:       -nan  MISS %:       -nan   MPKI: 0
PSCL4 PREFETCH  ACCESS:          0  HIT:          0  MISS:          0  HIT %:       -nan  MISS %:       -nan   MPKI: 0
PSCL4 WRITEBACK ACCESS:          0  HIT:          0  MISS:          0  HIT %:       -nan  MISS %:       -nan   MPKI: 0
PSCL3 TOTAL     ACCESS:      19703  HIT:      19703  MISS:          0  HIT %:        100  MISS %:          0   MPKI: 0
PSCL3 LOAD      ACCESS:          0  HIT:          0  MISS:          0  HIT %:       -nan  MISS %:       -nan   MPKI: 0
PSCL3 RFO       ACCESS:          0  HIT:          0  MISS:          0  HIT %:       -nan  MISS %:       -nan   MPKI: 0
PSCL3 PREFETCH  ACCESS:          0  HIT:          0  MISS:          0  HIT %:       -nan  MISS %:       -nan   MPKI: 0
PSCL3 WRITEBACK ACCESS:          0  HIT:          0  MISS:          0  HIT %:       -nan  MISS %:       -nan   MPKI: 0
PSCL2 TOTAL     ACCESS:      19703  HIT:      19663  MISS:         40  HIT %:     99.797  MISS %:   0.203015   MPKI: 0.0002
PSCL2 LOAD      ACCESS:          0  HIT:          0  MISS:          0  HIT %:       -nan  MISS %:       -nan   MPKI: 0
PSCL2 RFO       ACCESS:          0  HIT:          0  MISS:          0  HIT %:       -nan  MISS %:       -nan   MPKI: 0
PSCL2 PREFETCH  ACCESS:          0  HIT:          0  MISS:          0  HIT %:       -nan  MISS %:       -nan   MPKI: 0
PSCL2 WRITEBACK ACCESS:          0  HIT:          0  MISS:          0  HIT %:       -nan  MISS %:       -nan   MPKI: 0
=== CPU 3 L1D Prefetcher Statistics ===
[MLOP] History of tracked zone:
IIIIIIIIIIIIIIIIIIIIIIIIIIIIIIIIIIIIIIIIIIIIIIIIIIIIIIIIIIIIIIII
A11IIIIIIIIIIIIIIIIIIIIIIIIIIIIIIIIIIIIIIIIIIIIIIIIIIIIIIIIIIIII
AA11IIIIIIIIIIIIIIIIIIIIIIIIIIIIIIIIIIIIIIIIIIIIIIIIIIIIIIIIIIII
AAA11IIIIIIIIIIIIIIIIIIIIIIIIIIIIIIIIIIIIIIIIIIIIIIIIIIIIIIIIIII
AAAA11IIIIIIIIIIIIIIIIIIIIIIIIIIIIIIIIIIIIIIIIIIIIIIIIIIIIIIIIII
AAAAA11IIIIIIIIIIIIIIIIIIIIIIIIIIIIIIIIIIIIIIIIIIIIIIIIIIIIIIIII
AAAAAA11IIIIIIIIIIIIIIIIIIIIIIIIIIIIIIIIIIIIIIIIIIIIIIIIIIIIIIII
AAAAAAA11IIIIIIIIIIIIIIIIIIIIIIIIIIIIIIIIIIIIIIIIIIIIIIIIIIIIIII
AAAAAAAA11IIIIIIIIIIIIIIIIIIIIIIIIIIIIIIIIIIIIIIIIIIIIIIIIIIIIII
AAAAAAAAA11IIIIIIIIIIIIIIIIIIIIIIIIIIIIIIIIIIIIIIIIIIIIIIIIIIIII
AAAAAAAAAA11IIIIIIIIIIIIIIIIIIIIIIIIIIIIIIIIIIIIIIIIIIIIIIIIIIII
AAAAAAAAAAA11IIIIIIIIIIIIIIIIIIIIIIIIIIIIIIIIIIIIIIIIIIIIIIIIIII
AAAAAAAAAAAA11IIIIIIIIIIIIIIIIIIIIIIIIIIIIIIIIIIIIIIIIIIIIIIIIII
AAAAAAAAAAAAA11IIIIIIIIIIIIIIIIIIIIIIIIIIIIIIIIIIIIIIIIIIIIIIIII
AAAAAAAAAAAAAA11IIIIIIIIIIIIIIIIIIIIIIIIIIIIIIIIIIIIIIIIIIIIIIII
AAAAAAAAAAAAAAA11IIIIIIIIIIIIIIIIIIIIIIIIIIIIIIIIIIIIIIIIIIIIIII
AAAAAAAAAAAAAAAA11IIIIIIIIIIIIIIIIIIIIIIIIIIIIIIIIIIIIIIIIIIIIII
AAAAAAAAAAAAAAAAA11IIIIIIIIIIIIIIIIIIIIIIIIIIIIIIIIIIIIIIIIIIIII
AAAAAAAAAAAAAAAAAA11IIIIIIIIIIIIIIIIIIIIIIIIIIIIIIIIIIIIIIIIIIII
AAAAAAAAAAAAAAAAAAA11IIIIIIIIIIIIIIIIIIIIIIIIIIIIIIIIIIIIIIIIIII
AAAAAAAAAAAAAAAAAAAA11IIIIIIIIIIIIIIIIIIIIIIIIIIIIIIIIIIIIIIIIII
AAAAAAAAAAAAAAAAAAAAA11IIIIIIIIIIIIIIIIIIIIIIIIIIIIIIIIIIIIIIIII
AAAAAAAAAAAAAAAAAAAAAA11IIIIIIIIIIIIIIIIIIIIIIIIIIIIIIIIIIIIIIII
AAAAAAAAAAAAAAAAAAAAAAA11IIIIIIIIIIIIIIIIIIIIIIIIIIIIIIIIIIIIIII
AAAAAAAAAAAAAAAAAAAAAAAA11IIIIIIIIIIIIIIIIIIIIIIIIIIIIIIIIIIIIII
AAAAAAAAAAAAAAAAAAAAAAAAA11IIIIIIIIIIIIIIIIIIIIIIIIIIIIIIIIIIIII
AAAAAAAAAAAAAAAAAAAAAAAAAA11IIIIIIIIIIIIIIIIIIIIIIIIIIIIIIIIIIII
AAAAAAAAAAAAAAAAAAAAAAAAAAA11IIIIIIIIIIIIIIIIIIIIIIIIIIIIIIIIIII
AAAAAAAAAAAAAAAAAAAAAAAAAAAA11IIIIIIIIIIIIIIIIIIIIIIIIIIIIIIIIII
AAAAAAAAAAAAAAAAAAAAAAAAAAAAA11IIIIIIIIIIIIIIIIIIIIIIIIIIIIIIIII
AAAAAAAAAAAAAAAAAAAAAAAAAAAAAA11IIIIIIIIIIIIIIIIIIIIIIIIIIIIIIII
AAAAAAAAAAAAAAAAAAAAAAAAAAAAAAA11IIIIIIIIIIIIIIIIIIIIIIIIIIIIIII
AAAAAAAAAAAAAAAAAAAAAAAAAAAAAAAA11IIIIIIIIIIIIIIIIIIIIIIIIIIIIII
AAAAAAAAAAAAAAAAAAAAAAAAAAAAAAAAA11IIIIIIIIIIIIIIIIIIIIIIIIIIIII
AAAAAAAAAAAAAAAAAAAAAAAAAAAAAAAAAA11IIIIIIIIIIIIIIIIIIIIIIIIIIII
AAAAAAAAAAAAAAAAAAAAAAAAAAAAAAAAAAA11IIIIIIIIIIIIIIIIIIIIIIIIIII
AAAAAAAAAAAAAAAAAAAAAAAAAAAAAAAAAAAA11IIIIIIIIIIIIIIIIIIIIIIIIII
AAAAAAAAAAAAAAAAAAAAAAAAAAAAAAAAAAAAA11IIIIIIIIIIIIIIIIIIIIIIIII
AAAAAAAAAAAAAAAAAAAAAAAAAAAAAAAAAAAAAA11IIIIIIIIIIIIIIIIIIIIIIII
AAAAAAAAAAAAAAAAAAAAAAAAAAAAAAAAAAAAAAA11IIIIIIIIIIIIIIIIIIIIIII
AAAAAAAAAAAAAAAAAAAAAAAAAAAAAAAAAAAAAAAA11IIIIIIIIIIIIIIIIIIIIII
AAAAAAAAAAAAAAAAAAAAAAAAAAAAAAAAAAAAAAAAA11IIIIIIIIIIIIIIIIIIIII
AAAAAAAAAAAAAAAAAAAAAAAAAAAAAAAAAAAAAAAAAA11IIIIIIIIIIIIIIIIIIII
AAAAAAAAAAAAAAAAAAAAAAAAAAAAAAAAAAAAAAAAAAA11IIIIIIIIIIIIIIIIIII
AAAAAAAAAAAAAAAAAAAAAAAAAAAAAAAAAAAAAAAAAAAA11IIIIIIIIIIIIIIIIII
AAAAAAAAAAAAAAAAAAAAAAAAAAAAAAAAAAAAAAAAAAAAA11IIIIIIIIIIIIIIIII
AAAAAAAAAAAAAAAAAAAAAAAAAAAAAAAAAAAAAAAAAAAAAA11IIIIIIIIIIIIIIII
AAAAAAAAAAAAAAAAAAAAAAAAAAAAAAAAAAAAAAAAAAAAAAA11IIIIIIIIIIIIIII
AAAAAAAAAAAAAAAAAAAAAAAAAAAAAAAAAAAAAAAAAAAAAAAA11IIIIIIIIIIIIII
AAAAAAAAAAAAAAAAAAAAAAAAAAAAAAAAAAAAAAAAAAAAAAAAA11IIIIIIIIIIIII
AAAAAAAAAAAAAAAAAAAAAAAAAAAAAAAAAAAAAAAAAAAAAAAAAA11IIIIIIIIIIII
AAAAAAAAAAAAAAAAAAAAAAAAAAAAAAAAAAAAAAAAAAAAAAAAAAA11IIIIIIIIIII
AAAAAAAAAAAAAAAAAAAAAAAAAAAAAAAAAAAAAAAAAAAAAAAAAAAA11IIIIIIIIII
AAAAAAAAAAAAAAAAAAAAAAAAAAAAAAAAAAAAAAAAAAAAAAAAAAAAA11IIIIIIIII
AAAAAAAAAAAAAAAAAAAAAAAAAAAAAAAAAAAAAAAAAAAAAAAAAAAAAA11IIIIIIII
AAAAAAAAAAAAAAAAAAAAAAAAAAAAAAAAAAAAAAAAAAAAAAAAAAAAAAA11IIIIIII
AAAAAAAAAAAAAAAAAAAAAAAAAAAAAAAAAAAAAAAAAAAAAAAAAAAAAAAA11IIIIII
AAAAAAAAAAAAAAAAAAAAAAAAAAAAAAAAAAAAAAAAAAAAAAAAAAAAAAAAA11IIIII
AAAAAAAAAAAAAAAAAAAAAAAAAAAAAAAAAAAAAAAAAAAAAAAAAAAAAAAAAA11IIII
AAAAAAAAAAAAAAAAAAAAAAAAAAAAAAAAAAAAAAAAAAAAAAAAAAAAAAAAAAA11III
AAAAAAAAAAAAAAAAAAAAAAAAAAAAAAAAAAAAAAAAAAAAAAAAAAAAAAAAAAAA11II
AAAAAAAAAAAAAAAAAAAAAAAAAAAAAAAAAAAAAAAAAAAAAAAAAAAAAAAAAAAAA11I
AAAAAAAAAAAAAAAAAAAAAAAAAAAAAAAAAAAAAAAAAAAAAAAAAAAAAAAAAAAAAA11
AAAAAAAAAAAAAAAAAAAAAAAAAAAAAAAAAAAAAAAAAAAAAAAAAAAAAAAAAAAAAAA1
AAAAAAAAAAAAAAAAAAAAAAAAAAAAAAAAAAAAAAAAAAAAAAAAAAAAAAAAAAAAAAAA
[MLOP] Prefetch Degree Mean: 2.94444
[MLOP] Prefetch Degree SD: 0.229061
[MLOP] Max Score Left Mean (%): 89.0111
[MLOP] Max Score Left SD (%): 3.82127
[MLOP] Max Score Right Mean (%): 100
[MLOP] Max Score Right SD (%): 0
LLC TOTAL     ACCESS:    1933751  HIT:     641376  MISS:    1292375  HIT %:    33.1675  MISS %:    66.8325   MPKI: 6.46188
LLC LOAD      ACCESS:       9844  HIT:        579  MISS:       9265  HIT %:    5.88176  MISS %:    94.1182   MPKI: 0.046325
LLC RFO       ACCESS:     668131  HIT:          0  MISS:     668131  HIT %:          0  MISS %:        100   MPKI: 3.34065
LLC PREFETCH  ACCESS:     583601  HIT:          0  MISS:     583601  HIT %:          0  MISS %:        100   MPKI: 2.918
LLC WRITEBACK ACCESS:     669640  HIT:     640797  MISS:      28843  HIT %:    95.6928  MISS %:    4.30724   MPKI: 0.144215

RAW hits: 0
Loads Generated: 37850886
Loads sent to L1D: 37850886
Stores Generated: 5345043
Stores sent to L1D: 5345046

Region of Interest Statistics

CPU 0 cumulative IPC: 1.10592 instructions: 200000002 cycles: 180844117
ITLB TOTAL     ACCESS:   33162148  HIT:   33162148  MISS:          0  HIT %:        100  MISS %:          0   MPKI: 0
ITLB LOAD TRANSLATION ACCESS:   33162148  HIT:   33162148  MISS:          0  HIT %:        100  MISS %:          0   MPKI: 0
ITLB PREFETCH  REQUESTED:          0  ISSUED:          0  USEFUL:          0  USELESS:          0
ITLB USEFUL LOAD PREFETCHES:          0 PREFETCH ISSUED TO LOWER LEVEL:          0  ACCURACY: -nan
ITLB TIMELY PREFETCHES:          0 LATE PREFETCHES: 0 DROPPED PREFETCHES: 0
ITLB PREFETCHES SAME FILL-ORIGIN LEVEL: 0 DIFFERENT FILL-ORIGIN LEVEL: 0
ITLB AVERAGE MISS LATENCY: -nan cycles
ITLB RQ	ACCESS:   33185730	FORWARD:          0	MERGED:      18457	TO_CACHE:   33167273

DTLB TOTAL     ACCESS:   20699167  HIT:   20679464  MISS:      19703  HIT %:    99.9048  MISS %:  0.0951874   MPKI: 0.098515
DTLB LOAD TRANSLATION ACCESS:   20699167  HIT:   20679464  MISS:      19703  HIT %:    99.9048  MISS %:  0.0951874   MPKI: 0.098515
DTLB PREFETCH  REQUESTED:          0  ISSUED:          0  USEFUL:          0  USELESS:          0
DTLB USEFUL LOAD PREFETCHES:          0 PREFETCH ISSUED TO LOWER LEVEL:          0  ACCURACY: -nan
DTLB TIMELY PREFETCHES:          0 LATE PREFETCHES: 0 DROPPED PREFETCHES: 0
DTLB PREFETCHES SAME FILL-ORIGIN LEVEL: 0 DIFFERENT FILL-ORIGIN LEVEL: 0
DTLB AVERAGE MISS LATENCY: 171.973 cycles
DTLB RQ	ACCESS:   20794504	FORWARD:          0	MERGED:      73629	TO_CACHE:   20720875

STLB TOTAL     ACCESS:     584777  HIT:     565074  MISS:      19703  HIT %:    96.6307  MISS %:    3.36932   MPKI: 0.098515
STLB LOAD TRANSLATION ACCESS:      19703  HIT:          0  MISS:      19703  HIT %:          0  MISS %:        100   MPKI: 0.098515
STLB TRANSLATION FROM L1D PREFETCHER ACCESS:     565074  HIT:     565074  MISS:          0  HIT %:        100  MISS %:          0   MPKI: 0
STLB PREFETCH  REQUESTED:          0  ISSUED:          0  USEFUL:          0  USELESS:          0
STLB USEFUL LOAD PREFETCHES:          0 PREFETCH ISSUED TO LOWER LEVEL:          0  ACCURACY: -nan
STLB TIMELY PREFETCHES:          0 LATE PREFETCHES: 0 DROPPED PREFETCHES: 0
STLB PREFETCHES SAME FILL-ORIGIN LEVEL: 0 DIFFERENT FILL-ORIGIN LEVEL: 0
STLB AVERAGE MISS LATENCY: 162.936 cycles
STLB RQ	ACCESS:     603403	FORWARD:          0	MERGED:      18532	TO_CACHE:     584871

STLB Hit, L1D data hit: 0
STLB Hit, L2C data hit: 0
STLB Hit, LLC data hit: 0
STLB Hit, LLC data miss: 0
STLB STLB hints to L2: 0
L1D TOTAL     ACCESS:   17317131  HIT:   16053899  MISS:    1263232  HIT %:    92.7053  MISS %:     7.2947   MPKI: 6.31616
L1D LOAD      ACCESS:   15373564  HIT:   15356459  MISS:      17105  HIT %:    99.8887  MISS %:   0.111262   MPKI: 0.085525
L1D RFO       ACCESS:    1365571  HIT:     697440  MISS:     668131  HIT %:    51.0731  MISS %:    48.9269   MPKI: 3.34065
L1D PREFETCH  ACCESS:     577996  HIT:          0  MISS:     577996  HIT %:          0  MISS %:        100   MPKI: 2.88998
L1D PREFETCH  REQUESTED:    1167390  ISSUED:    1167390  USEFUL:     575845  USELESS:       2235
L1D USEFUL LOAD PREFETCHES:     575845 PREFETCH ISSUED TO LOWER LEVEL:     583695  ACCURACY: 98.6551
L1D TIMELY PREFETCHES:     575845 LATE PREFETCHES: 5609 DROPPED PREFETCHES: 0
L1D PREFETCHES SAME FILL-ORIGIN LEVEL: 583695 DIFFERENT FILL-ORIGIN LEVEL: 0
L1D AVERAGE MISS LATENCY: 302.135 cycles
L1D RQ	ACCESS:   37856668	FORWARD:          0	MERGED:   22408120	TO_CACHE:   15448548
L1D WQ	ACCESS:    5345956	FORWARD:          0	MERGED:          0	TO_CACHE:    5345956
L1D PQ	ACCESS:     583695	FORWARD:          0	MERGED:          0	TO_CACHE:     583695

L1D UNIQUE REGIONS ACCESSED: 0
L1D REGIONS CONFLICTS: 0
L1D Cross Page Prefetch Requests: 0
L1D Same Page Prefetch Requests: 728469
L1D ROI Sum of L1D PQ occupancy: 6429225
L1D PREFETCHES PUSHED FROM L2C: 0
L1I TOTAL     ACCESS:   33180603  HIT:   33180603  MISS:          0  HIT %:        100  MISS %:          0   MPKI: 0
L1I LOAD      ACCESS:   33180603  HIT:   33180603  MISS:          0  HIT %:        100  MISS %:          0   MPKI: 0
L1I PREFETCH  REQUESTED:          0  ISSUED:          0  USEFUL:          0  USELESS:          0
L1I USEFUL LOAD PREFETCHES:          0 PREFETCH ISSUED TO LOWER LEVEL:          0  ACCURACY: -nan
L1I TIMELY PREFETCHES:          0 LATE PREFETCHES: 0 DROPPED PREFETCHES: 0
L1I PREFETCHES SAME FILL-ORIGIN LEVEL: 0 DIFFERENT FILL-ORIGIN LEVEL: 0
L1I AVERAGE MISS LATENCY: -nan cycles
L1I RQ	ACCESS:   91503041	FORWARD:          0	MERGED:   58317311	TO_CACHE:   33185730

BTB TOTAL     ACCESS:   75609432  HIT:   75609431  MISS:          1  HIT %:        100  MISS %: 1.32259e-06   MPKI: 5e-06
BTB BRANCH_DIRECT_JUMP	ACCESS:          0  HIT:          0  MISS:          0
BTB BRANCH_INDIRECT	ACCESS:          0  HIT:          0  MISS:          0
BTB BRANCH_CONDITIONAL	ACCESS:   75609432  HIT:   75609431  MISS:          1
BTB BRANCH_DIRECT_CALL	ACCESS:          0  HIT:          0  MISS:          0
BTB BRANCH_INDIRECT_CALL	ACCESS:          0  HIT:          0  MISS:          0
BTB BRANCH_RETURN	ACCESS:          0  HIT:          0  MISS:          0
BTB BRANCH_OTHER ACCESS:          0  HIT:          0  MISS:          0

L2C TOTAL     ACCESS:    1951063  HIT:     634925  MISS:    1316138  HIT %:    32.5425  MISS %:    67.4575   MPKI: 6.58069
L2C LOAD      ACCESS:      11499  HIT:       1698  MISS:       9801  HIT %:    14.7665  MISS %:    85.2335   MPKI: 0.049005
L2C DATA LOAD MPKI: 0.049005
L2C INSTRUCTION LOAD MPKI: 0
L2C RFO       ACCESS:     668131  HIT:          0  MISS:     668131  HIT %:          0  MISS %:        100   MPKI: 3.34065
L2C PREFETCH  ACCESS:     583602  HIT:          0  MISS:     583602  HIT %:          0  MISS %:        100   MPKI: 2.91801
L2C DATA PREFETCH MPKI: 2.91801
L2C INSTRUCTION PREFETCH MPKI: 0
L2C WRITEBACK ACCESS:     668126  HIT:     616058  MISS:      52068  HIT %:    92.2069  MISS %:    7.79314   MPKI: 0.26034
L2C LOAD TRANSLATION ACCESS:      19705  HIT:      17169  MISS:       2536  HIT %:    87.1302  MISS %:    12.8698   MPKI: 0.01268
L2C PREFETCH  REQUESTED:          0  ISSUED:          0  USEFUL:       1698  USELESS:     580667
L2C USEFUL LOAD PREFETCHES:       1698 PREFETCH ISSUED TO LOWER LEVEL:     583695  ACCURACY: 0.290905
L2C TIMELY PREFETCHES:       1698 LATE PREFETCHES: 0 DROPPED PREFETCHES: 0
L2C PREFETCHES SAME FILL-ORIGIN LEVEL: 0 DIFFERENT FILL-ORIGIN LEVEL: 0
L2C AVERAGE MISS LATENCY: 282.269 cycles
L2C RQ	ACCESS:     699458	FORWARD:          0	MERGED:          0	TO_CACHE:     699458
L2C WQ	ACCESS:     668235	FORWARD:          0	MERGED:          0	TO_CACHE:     668235
L2C PQ	ACCESS:     583695	FORWARD:          0	MERGED:          0	TO_CACHE:     583695

L2C Instructions Evicting Data 0
L2C Translations Evicting Data 2539
L2C Data Evicting Data 1259277
L2C Instructions Evicting Instructions 0
L2C Translations Evicting Instructions 0
L2C Data Evicting Instructions 0
L2C Instructions Evicting Translations 0
L2C Translations Evicting Translations 0
L2C Data Evicting Translations 2463
L2C Dense regions hint from L2: 0
PSCL5 TOTAL     ACCESS:      19704  HIT:      19704  MISS:          0  HIT %:        100  MISS %:          0   MPKI: 0
PSCL5 LOAD TRANSLATION ACCESS:      19704  HIT:      19704  MISS:          0  HIT %:        100  MISS %:          0   MPKI: 0
PSCL5 PREFETCH  REQUESTED:          0  ISSUED:          0  USEFUL:          0  USELESS:          0
PSCL5 USEFUL LOAD PREFETCHES:          0 PREFETCH ISSUED TO LOWER LEVEL:          0  ACCURACY: -nan
PSCL5 TIMELY PREFETCHES:          0 LATE PREFETCHES: 0 DROPPED PREFETCHES: 0
PSCL5 PREFETCHES SAME FILL-ORIGIN LEVEL: 0 DIFFERENT FILL-ORIGIN LEVEL: 0

PSCL4 TOTAL     ACCESS:      19704  HIT:      19704  MISS:          0  HIT %:        100  MISS %:          0   MPKI: 0
PSCL4 LOAD TRANSLATION ACCESS:      19704  HIT:      19704  MISS:          0  HIT %:        100  MISS %:          0   MPKI: 0
PSCL4 PREFETCH  REQUESTED:          0  ISSUED:          0  USEFUL:          0  USELESS:          0
PSCL4 USEFUL LOAD PREFETCHES:          0 PREFETCH ISSUED TO LOWER LEVEL:          0  ACCURACY: -nan
PSCL4 TIMELY PREFETCHES:          0 LATE PREFETCHES: 0 DROPPED PREFETCHES: 0
PSCL4 PREFETCHES SAME FILL-ORIGIN LEVEL: 0 DIFFERENT FILL-ORIGIN LEVEL: 0

PSCL3 TOTAL     ACCESS:      19704  HIT:      19704  MISS:          0  HIT %:        100  MISS %:          0   MPKI: 0
PSCL3 LOAD TRANSLATION ACCESS:      19704  HIT:      19704  MISS:          0  HIT %:        100  MISS %:          0   MPKI: 0
PSCL3 PREFETCH  REQUESTED:          0  ISSUED:          0  USEFUL:          0  USELESS:          0
PSCL3 USEFUL LOAD PREFETCHES:          0 PREFETCH ISSUED TO LOWER LEVEL:          0  ACCURACY: -nan
PSCL3 TIMELY PREFETCHES:          0 LATE PREFETCHES: 0 DROPPED PREFETCHES: 0
PSCL3 PREFETCHES SAME FILL-ORIGIN LEVEL: 0 DIFFERENT FILL-ORIGIN LEVEL: 0

PSCL2 TOTAL     ACCESS:      19703  HIT:      19663  MISS:         40  HIT %:     99.797  MISS %:   0.203015   MPKI: 0.0002
PSCL2 LOAD TRANSLATION ACCESS:      19703  HIT:      19663  MISS:         40  HIT %:     99.797  MISS %:   0.203015   MPKI: 0.0002
PSCL2 PREFETCH  REQUESTED:          0  ISSUED:          0  USEFUL:          0  USELESS:          0
PSCL2 USEFUL LOAD PREFETCHES:          0 PREFETCH ISSUED TO LOWER LEVEL:          0  ACCURACY: -nan
PSCL2 TIMELY PREFETCHES:          0 LATE PREFETCHES: 0 DROPPED PREFETCHES: 0
PSCL2 PREFETCHES SAME FILL-ORIGIN LEVEL: 0 DIFFERENT FILL-ORIGIN LEVEL: 0

LLC TOTAL     ACCESS:    1933513  HIT:     640462  MISS:    1293051  HIT %:    33.1243  MISS %:    66.8757   MPKI: 6.46525
LLC LOAD      ACCESS:       9801  HIT:        535  MISS:       9266  HIT %:    5.45863  MISS %:    94.5414   MPKI: 0.04633
LLC RFO       ACCESS:     668131  HIT:          0  MISS:     668131  HIT %:          0  MISS %:        100   MPKI: 3.34065
LLC PREFETCH  ACCESS:     583602  HIT:          0  MISS:     583602  HIT %:          0  MISS %:        100   MPKI: 2.91801
LLC WRITEBACK ACCESS:     669443  HIT:     639920  MISS:      29523  HIT %:    95.5899  MISS %:    4.41008   MPKI: 0.147615
LLC LOAD TRANSLATION ACCESS:       2536  HIT:          7  MISS:       2529  HIT %:   0.276025  MISS %:     99.724   MPKI: 0.012645
LLC PREFETCH  REQUESTED:          0  ISSUED:          0  USEFUL:       2254  USELESS:    2330237
LLC USEFUL LOAD PREFETCHES:       2254 PREFETCH ISSUED TO LOWER LEVEL:    2334635  ACCURACY: 0.0965461
LLC TIMELY PREFETCHES:       2254 LATE PREFETCHES: 0 DROPPED PREFETCHES: 0
LLC PREFETCHES SAME FILL-ORIGIN LEVEL: 0 DIFFERENT FILL-ORIGIN LEVEL: 0
LLC AVERAGE MISS LATENCY: 1031.35 cycles
LLC RQ	ACCESS:    2722280	FORWARD:          0	MERGED:          0	TO_CACHE:    2722280
LLC WQ	ACCESS:    2678773	FORWARD:          0	MERGED:          0	TO_CACHE:    2678773
LLC PQ	ACCESS:    2334637	FORWARD:          0	MERGED:          0	TO_CACHE:    2334637

LLC Dense regions hint to LLC: 0

RAW hits: 0
Loads Generated: 37850890
Loads sent to L1D: 37850888
Stores Generated: 5345044
Stores sent to L1D: 5345047
Major fault: 0 Minor fault: 24882
Allocated PAGES: 99528

CPU 1 cumulative IPC: 1.10586 instructions: 200000000 cycles: 180854602
ITLB TOTAL     ACCESS:   33162463  HIT:   33162463  MISS:          0  HIT %:        100  MISS %:          0   MPKI: 0
ITLB LOAD TRANSLATION ACCESS:   33162463  HIT:   33162463  MISS:          0  HIT %:        100  MISS %:          0   MPKI: 0
ITLB PREFETCH  REQUESTED:          0  ISSUED:          0  USEFUL:          0  USELESS:          0
ITLB USEFUL LOAD PREFETCHES:          0 PREFETCH ISSUED TO LOWER LEVEL:          0  ACCURACY: -nan
ITLB TIMELY PREFETCHES:          0 LATE PREFETCHES: 0 DROPPED PREFETCHES: 0
ITLB PREFETCHES SAME FILL-ORIGIN LEVEL: 0 DIFFERENT FILL-ORIGIN LEVEL: 0
ITLB AVERAGE MISS LATENCY: -nan cycles
ITLB RQ	ACCESS:   33183651	FORWARD:          0	MERGED:      18456	TO_CACHE:   33165195

DTLB TOTAL     ACCESS:   20699380  HIT:   20679677  MISS:      19703  HIT %:    99.9048  MISS %:  0.0951864   MPKI: 0.098515
DTLB LOAD TRANSLATION ACCESS:   20699380  HIT:   20679677  MISS:      19703  HIT %:    99.9048  MISS %:  0.0951864   MPKI: 0.098515
DTLB PREFETCH  REQUESTED:          0  ISSUED:          0  USEFUL:          0  USELESS:          0
DTLB USEFUL LOAD PREFETCHES:          0 PREFETCH ISSUED TO LOWER LEVEL:          0  ACCURACY: -nan
DTLB TIMELY PREFETCHES:          0 LATE PREFETCHES: 0 DROPPED PREFETCHES: 0
DTLB PREFETCHES SAME FILL-ORIGIN LEVEL: 0 DIFFERENT FILL-ORIGIN LEVEL: 0
DTLB AVERAGE MISS LATENCY: 171.119 cycles
DTLB RQ	ACCESS:   20793169	FORWARD:          0	MERGED:      73742	TO_CACHE:   20719427

STLB TOTAL     ACCESS:     584777  HIT:     565074  MISS:      19703  HIT %:    96.6307  MISS %:    3.36932   MPKI: 0.098515
STLB LOAD TRANSLATION ACCESS:      19703  HIT:          0  MISS:      19703  HIT %:          0  MISS %:        100   MPKI: 0.098515
STLB TRANSLATION FROM L1D PREFETCHER ACCESS:     565074  HIT:     565074  MISS:          0  HIT %:        100  MISS %:          0   MPKI: 0
STLB PREFETCH  REQUESTED:          0  ISSUED:          0  USEFUL:          0  USELESS:          0
STLB USEFUL LOAD PREFETCHES:          0 PREFETCH ISSUED TO LOWER LEVEL:          0  ACCURACY: -nan
STLB TIMELY PREFETCHES:          0 LATE PREFETCHES: 0 DROPPED PREFETCHES: 0
STLB PREFETCHES SAME FILL-ORIGIN LEVEL: 0 DIFFERENT FILL-ORIGIN LEVEL: 0
STLB AVERAGE MISS LATENCY: 162.078 cycles
STLB RQ	ACCESS:     603359	FORWARD:          0	MERGED:      18532	TO_CACHE:     584827

STLB Hit, L1D data hit: 0
STLB Hit, L2C data hit: 0
STLB Hit, LLC data hit: 0
STLB Hit, LLC data miss: 0
STLB STLB hints to L2: 0
L1D TOTAL     ACCESS:   17316839  HIT:   16053608  MISS:    1263231  HIT %:    92.7052  MISS %:    7.29481   MPKI: 6.31616
L1D LOAD      ACCESS:   15374229  HIT:   15357108  MISS:      17121  HIT %:    99.8886  MISS %:   0.111362   MPKI: 0.085605
L1D RFO       ACCESS:    1364631  HIT:     696500  MISS:     668131  HIT %:    51.0394  MISS %:    48.9606   MPKI: 3.34065
L1D PREFETCH  ACCESS:     577979  HIT:          0  MISS:     577979  HIT %:          0  MISS %:        100   MPKI: 2.8899
L1D PREFETCH  REQUESTED:    1167304  ISSUED:    1167304  USEFUL:     575784  USELESS:       2235
L1D USEFUL LOAD PREFETCHES:     575784 PREFETCH ISSUED TO LOWER LEVEL:     583652  ACCURACY: 98.6519
L1D TIMELY PREFETCHES:     575784 LATE PREFETCHES: 5627 DROPPED PREFETCHES: 0
L1D PREFETCHES SAME FILL-ORIGIN LEVEL: 583652 DIFFERENT FILL-ORIGIN LEVEL: 0
L1D AVERAGE MISS LATENCY: 302.112 cycles
L1D RQ	ACCESS:   37853936	FORWARD:          0	MERGED:   22406296	TO_CACHE:   15447640
L1D WQ	ACCESS:    5345529	FORWARD:          0	MERGED:          0	TO_CACHE:    5345529
L1D PQ	ACCESS:     583652	FORWARD:          0	MERGED:          0	TO_CACHE:     583652

L1D UNIQUE REGIONS ACCESSED: 0
L1D REGIONS CONFLICTS: 0
L1D Cross Page Prefetch Requests: 0
L1D Same Page Prefetch Requests: 728426
L1D ROI Sum of L1D PQ occupancy: 6428753
L1D PREFETCHES PUSHED FROM L2C: 0
L1I TOTAL     ACCESS:   33180918  HIT:   33180918  MISS:          0  HIT %:        100  MISS %:          0   MPKI: 0
L1I LOAD      ACCESS:   33180918  HIT:   33180918  MISS:          0  HIT %:        100  MISS %:          0   MPKI: 0
L1I PREFETCH  REQUESTED:          0  ISSUED:          0  USEFUL:          0  USELESS:          0
L1I USEFUL LOAD PREFETCHES:          0 PREFETCH ISSUED TO LOWER LEVEL:          0  ACCURACY: -nan
L1I TIMELY PREFETCHES:          0 LATE PREFETCHES: 0 DROPPED PREFETCHES: 0
L1I PREFETCHES SAME FILL-ORIGIN LEVEL: 0 DIFFERENT FILL-ORIGIN LEVEL: 0
L1I AVERAGE MISS LATENCY: -nan cycles
L1I RQ	ACCESS:   91496146	FORWARD:          0	MERGED:   58312495	TO_CACHE:   33183651

BTB TOTAL     ACCESS:   75609430  HIT:   75609429  MISS:          1  HIT %:        100  MISS %: 1.32259e-06   MPKI: 5e-06
BTB BRANCH_DIRECT_JUMP	ACCESS:          0  HIT:          0  MISS:          0
BTB BRANCH_INDIRECT	ACCESS:          0  HIT:          0  MISS:          0
BTB BRANCH_CONDITIONAL	ACCESS:   75609430  HIT:   75609429  MISS:          1
BTB BRANCH_DIRECT_CALL	ACCESS:          0  HIT:          0  MISS:          0
BTB BRANCH_INDIRECT_CALL	ACCESS:          0  HIT:          0  MISS:          0
BTB BRANCH_RETURN	ACCESS:          0  HIT:          0  MISS:          0
BTB BRANCH_OTHER ACCESS:          0  HIT:          0  MISS:          0

L2C TOTAL     ACCESS:    1951062  HIT:     638019  MISS:    1313043  HIT %:    32.7011  MISS %:    67.2989   MPKI: 6.56522
L2C LOAD      ACCESS:      11499  HIT:       1622  MISS:       9877  HIT %:    14.1056  MISS %:    85.8944   MPKI: 0.049385
L2C DATA LOAD MPKI: 0.049385
L2C INSTRUCTION LOAD MPKI: 0
L2C RFO       ACCESS:     668131  HIT:          0  MISS:     668131  HIT %:          0  MISS %:        100   MPKI: 3.34065
L2C PREFETCH  ACCESS:     583601  HIT:          0  MISS:     583601  HIT %:          0  MISS %:        100   MPKI: 2.918
L2C DATA PREFETCH MPKI: 2.918
L2C INSTRUCTION PREFETCH MPKI: 0
L2C WRITEBACK ACCESS:     668126  HIT:     619227  MISS:      48899  HIT %:    92.6812  MISS %:    7.31883   MPKI: 0.244495
L2C LOAD TRANSLATION ACCESS:      19705  HIT:      17170  MISS:       2535  HIT %:    87.1352  MISS %:    12.8648   MPKI: 0.012675
[...]
AAAAAA11IIIIIIIIIIIIIIIIIIIIIIIIIIIIIIIIIIIIIIIIIIIIIIIIIIIIIIII
AAAAAAA11IIIIIIIIIIIIIIIIIIIIIIIIIIIIIIIIIIIIIIIIIIIIIIIIIIIIIII
AAAAAAAA11IIIIIIIIIIIIIIIIIIIIIIIIIIIIIIIIIIIIIIIIIIIIIIIIIIIIII
AAAAAAAAA11IIIIIIIIIIIIIIIIIIIIIIIIIIIIIIIIIIIIIIIIIIIIIIIIIIIII
AAAAAAAAAA11IIIIIIIIIIIIIIIIIIIIIIIIIIIIIIIIIIIIIIIIIIIIIIIIIIII
AAAAAAAAAAA11IIIIIIIIIIIIIIIIIIIIIIIIIIIIIIIIIIIIIIIIIIIIIIIIIII
AAAAAAAAAAAA11IIIIIIIIIIIIIIIIIIIIIIIIIIIIIIIIIIIIIIIIIIIIIIIIII
AAAAAAAAAAAAA11IIIIIIIIIIIIIIIIIIIIIIIIIIIIIIIIIIIIIIIIIIIIIIIII
AAAAAAAAAAAAAA11IIIIIIIIIIIIIIIIIIIIIIIIIIIIIIIIIIIIIIIIIIIIIIII
AAAAAAAAAAAAAAA11IIIIIIIIIIIIIIIIIIIIIIIIIIIIIIIIIIIIIIIIIIIIIII
AAAAAAAAAAAAAAAA11IIIIIIIIIIIIIIIIIIIIIIIIIIIIIIIIIIIIIIIIIIIIII
AAAAAAAAAAAAAAAAA11IIIIIIIIIIIIIIIIIIIIIIIIIIIIIIIIIIIIIIIIIIIII
AAAAAAAAAAAAAAAAAA11IIIIIIIIIIIIIIIIIIIIIIIIIIIIIIIIIIIIIIIIIIII
AAAAAAAAAAAAAAAAAAA11IIIIIIIIIIIIIIIIIIIIIIIIIIIIIIIIIIIIIIIIIII
AAAAAAAAAAAAAAAAAAAA11IIIIIIIIIIIIIIIIIIIIIIIIIIIIIIIIIIIIIIIIII
AAAAAAAAAAAAAAAAAAAAA11IIIIIIIIIIIIIIIIIIIIIIIIIIIIIIIIIIIIIIIII
AAAAAAAAAAAAAAAAAAAAAA11IIIIIIIIIIIIIIIIIIIIIIIIIIIIIIIIIIIIIIII
AAAAAAAAAAAAAAAAAAAAAAA11IIIIIIIIIIIIIIIIIIIIIIIIIIIIIIIIIIIIIII
AAAAAAAAAAAAAAAAAAAAAAAA11IIIIIIIIIIIIIIIIIIIIIIIIIIIIIIIIIIIIII
AAAAAAAAAAAAAAAAAAAAAAAAA11IIIIIIIIIIIIIIIIIIIIIIIIIIIIIIIIIIIII
AAAAAAAAAAAAAAAAAAAAAAAAAA11IIIIIIIIIIIIIIIIIIIIIIIIIIIIIIIIIIII
AAAAAAAAAAAAAAAAAAAAAAAAAAA11IIIIIIIIIIIIIIIIIIIIIIIIIIIIIIIIIII
AAAAAAAAAAAAAAAAAAAAAAAAAAAA11IIIIIIIIIIIIIIIIIIIIIIIIIIIIIIIIII
AAAAAAAAAAAAAAAAAAAAAAAAAAAAA11IIIIIIIIIIIIIIIIIIIIIIIIIIIIIIIII
AAAAAAAAAAAAAAAAAAAAAAAAAAAAAA11IIIIIIIIIIIIIIIIIIIIIIIIIIIIIIII
AAAAAAAAAAAAAAAAAAAAAAAAAAAAAAA11IIIIIIIIIIIIIIIIIIIIIIIIIIIIIII
AAAAAAAAAAAAAAAAAAAAAAAAAAAAAAAA11IIIIIIIIIIIIIIIIIIIIIIIIIIIIII
AAAAAAAAAAAAAAAAAAAAAAAAAAAAAAAAA11IIIIIIIIIIIIIIIIIIIIIIIIIIIII
AAAAAAAAAAAAAAAAAAAAAAAAAAAAAAAAAA11IIIIIIIIIIIIIIIIIIIIIIIIIIII
AAAAAAAAAAAAAAAAAAAAAAAAAAAAAAAAAAA11IIIIIIIIIIIIIIIIIIIIIIIIIII
AAAAAAAAAAAAAAAAAAAAAAAAAAAAAAAAAAAA11IIIIIIIIIIIIIIIIIIIIIIIIII
AAAAAAAAAAAAAAAAAAAAAAAAAAAAAAAAAAAAA11IIIIIIIIIIIIIIIIIIIIIIIII
AAAAAAAAAAAAAAAAAAAAAAAAAAAAAAAAAAAAAA11IIIIIIIIIIIIIIIIIIIIIIII
AAAAAAAAAAAAAAAAAAAAAAAAAAAAAAAAAAAAAAA11IIIIIIIIIIIIIIIIIIIIIII
AAAAAAAAAAAAAAAAAAAAAAAAAAAAAAAAAAAAAAAA11IIIIIIIIIIIIIIIIIIIIII
AAAAAAAAAAAAAAAAAAAAAAAAAAAAAAAAAAAAAAAAA11IIIIIIIIIIIIIIIIIIIII
AAAAAAAAAAAAAAAAAAAAAAAAAAAAAAAAAAAAAAAAAA11IIIIIIIIIIIIIIIIIIII
AAAAAAAAAAAAAAAAAAAAAAAAAAAAAAAAAAAAAAAAAAA11IIIIIIIIIIIIIIIIIII
AAAAAAAAAAAAAAAAAAAAAAAAAAAAAAAAAAAAAAAAAAAA11IIIIIIIIIIIIIIIIII
AAAAAAAAAAAAAAAAAAAAAAAAAAAAAAAAAAAAAAAAAAAAA11IIIIIIIIIIIIIIIII
AAAAAAAAAAAAAAAAAAAAAAAAAAAAAAAAAAAAAAAAAAAAAA11IIIIIIIIIIIIIIII
AAAAAAAAAAAAAAAAAAAAAAAAAAAAAAAAAAAAAAAAAAAAAAA11IIIIIIIIIIIIIII
AAAAAAAAAAAAAAAAAAAAAAAAAAAAAAAAAAAAAAAAAAAAAAAA11IIIIIIIIIIIIII
AAAAAAAAAAAAAAAAAAAAAAAAAAAAAAAAAAAAAAAAAAAAAAAAA11IIIIIIIIIIIII
AAAAAAAAAAAAAAAAAAAAAAAAAAAAAAAAAAAAAAAAAAAAAAAAAA11IIIIIIIIIIII
AAAAAAAAAAAAAAAAAAAAAAAAAAAAAAAAAAAAAAAAAAAAAAAAAAA11IIIIIIIIIII
AAAAAAAAAAAAAAAAAAAAAAAAAAAAAAAAAAAAAAAAAAAAAAAAAAAA11IIIIIIIIII
AAAAAAAAAAAAAAAAAAAAAAAAAAAAAAAAAAAAAAAAAAAAAAAAAAAAA11IIIIIIIII
AAAAAAAAAAAAAAAAAAAAAAAAAAAAAAAAAAAAAAAAAAAAAAAAAAAAAA11IIIIIIII
AAAAAAAAAAAAAAAAAAAAAAAAAAAAAAAAAAAAAAAAAAAAAAAAAAAAAAA11IIIIIII
AAAAAAAAAAAAAAAAAAAAAAAAAAAAAAAAAAAAAAAAAAAAAAAAAAAAAAAA11IIIIII
AAAAAAAAAAAAAAAAAAAAAAAAAAAAAAAAAAAAAAAAAAAAAAAAAAAAAAAAA11IIIII
AAAAAAAAAAAAAAAAAAAAAAAAAAAAAAAAAAAAAAAAAAAAAAAAAAAAAAAAAA11IIII
AAAAAAAAAAAAAAAAAAAAAAAAAAAAAAAAAAAAAAAAAAAAAAAAAAAAAAAAAAA11III
AAAAAAAAAAAAAAAAAAAAAAAAAAAAAAAAAAAAAAAAAAAAAAAAAAAAAAAAAAAA11II
AAAAAAAAAAAAAAAAAAAAAAAAAAAAAAAAAAAAAAAAAAAAAAAAAAAAAAAAAAAAA11I
AAAAAAAAAAAAAAAAAAAAAAAAAAAAAAAAAAAAAAAAAAAAAAAAAAAAAAAAAAAAAA11
AAAAAAAAAAAAAAAAAAAAAAAAAAAAAAAAAAAAAAAAAAAAAAAAAAAAAAAAAAAAAAA1
AAAAAAAAAAAAAAAAAAAAAAAAAAAAAAAAAAAAAAAAAAAAAAAAAAAAAAAAAAAAAAAA
[MLOP] Prefetch Degree Mean: 2.94118
[MLOP] Prefetch Degree SD: 0.235294
[MLOP] Max Score Left Mean (%): 89.8471
[MLOP] Max Score Left SD (%): 3.41039
[MLOP] Max Score Right Mean (%): 100
[MLOP] Max Score Right SD (%): 0
=== CPU 1 L1D Prefetcher Statistics ===
[MLOP] History of tracked zone:
IIIIIIIIIIIIIIIIIIIIIIIIIIIIIIIIIIIIIIIIIIIIIIIIIIIIIIIIIIIIIIII
A11IIIIIIIIIIIIIIIIIIIIIIIIIIIIIIIIIIIIIIIIIIIIIIIIIIIIIIIIIIIII
AA11IIIIIIIIIIIIIIIIIIIIIIIIIIIIIIIIIIIIIIIIIIIIIIIIIIIIIIIIIIII
AAA11IIIIIIIIIIIIIIIIIIIIIIIIIIIIIIIIIIIIIIIIIIIIIIIIIIIIIIIIIII
AAAA11IIIIIIIIIIIIIIIIIIIIIIIIIIIIIIIIIIIIIIIIIIIIIIIIIIIIIIIIII
AAAAA11IIIIIIIIIIIIIIIIIIIIIIIIIIIIIIIIIIIIIIIIIIIIIIIIIIIIIIIII
AAAAAA11IIIIIIIIIIIIIIIIIIIIIIIIIIIIIIIIIIIIIIIIIIIIIIIIIIIIIIII
AAAAAAA11IIIIIIIIIIIIIIIIIIIIIIIIIIIIIIIIIIIIIIIIIIIIIIIIIIIIIII
AAAAAAAA11IIIIIIIIIIIIIIIIIIIIIIIIIIIIIIIIIIIIIIIIIIIIIIIIIIIIII
AAAAAAAAA11IIIIIIIIIIIIIIIIIIIIIIIIIIIIIIIIIIIIIIIIIIIIIIIIIIIII
AAAAAAAAAA11IIIIIIIIIIIIIIIIIIIIIIIIIIIIIIIIIIIIIIIIIIIIIIIIIIII
AAAAAAAAAAA11IIIIIIIIIIIIIIIIIIIIIIIIIIIIIIIIIIIIIIIIIIIIIIIIIII
AAAAAAAAAAAA11IIIIIIIIIIIIIIIIIIIIIIIIIIIIIIIIIIIIIIIIIIIIIIIIII
AAAAAAAAAAAAA11IIIIIIIIIIIIIIIIIIIIIIIIIIIIIIIIIIIIIIIIIIIIIIIII
AAAAAAAAAAAAAA11IIIIIIIIIIIIIIIIIIIIIIIIIIIIIIIIIIIIIIIIIIIIIIII
AAAAAAAAAAAAAAA11IIIIIIIIIIIIIIIIIIIIIIIIIIIIIIIIIIIIIIIIIIIIIII
AAAAAAAAAAAAAAAA11IIIIIIIIIIIIIIIIIIIIIIIIIIIIIIIIIIIIIIIIIIIIII
AAAAAAAAAAAAAAAAA11IIIIIIIIIIIIIIIIIIIIIIIIIIIIIIIIIIIIIIIIIIIII
AAAAAAAAAAAAAAAAAA11IIIIIIIIIIIIIIIIIIIIIIIIIIIIIIIIIIIIIIIIIIII
AAAAAAAAAAAAAAAAAAA11IIIIIIIIIIIIIIIIIIIIIIIIIIIIIIIIIIIIIIIIIII
AAAAAAAAAAAAAAAAAAAA11IIIIIIIIIIIIIIIIIIIIIIIIIIIIIIIIIIIIIIIIII
AAAAAAAAAAAAAAAAAAAAA11IIIIIIIIIIIIIIIIIIIIIIIIIIIIIIIIIIIIIIIII
AAAAAAAAAAAAAAAAAAAAAA11IIIIIIIIIIIIIIIIIIIIIIIIIIIIIIIIIIIIIIII
AAAAAAAAAAAAAAAAAAAAAAA11IIIIIIIIIIIIIIIIIIIIIIIIIIIIIIIIIIIIIII
AAAAAAAAAAAAAAAAAAAAAAAA11IIIIIIIIIIIIIIIIIIIIIIIIIIIIIIIIIIIIII
AAAAAAAAAAAAAAAAAAAAAAAAA11IIIIIIIIIIIIIIIIIIIIIIIIIIIIIIIIIIIII
AAAAAAAAAAAAAAAAAAAAAAAAAA11IIIIIIIIIIIIIIIIIIIIIIIIIIIIIIIIIIII
AAAAAAAAAAAAAAAAAAAAAAAAAAA11IIIIIIIIIIIIIIIIIIIIIIIIIIIIIIIIIII
AAAAAAAAAAAAAAAAAAAAAAAAAAAA11IIIIIIIIIIIIIIIIIIIIIIIIIIIIIIIIII
AAAAAAAAAAAAAAAAAAAAAAAAAAAAA11IIIIIIIIIIIIIIIIIIIIIIIIIIIIIIIII
AAAAAAAAAAAAAAAAAAAAAAAAAAAAAA11IIIIIIIIIIIIIIIIIIIIIIIIIIIIIIII
AAAAAAAAAAAAAAAAAAAAAAAAAAAAAAA11IIIIIIIIIIIIIIIIIIIIIIIIIIIIIII
AAAAAAAAAAAAAAAAAAAAAAAAAAAAAAAA11IIIIIIIIIIIIIIIIIIIIIIIIIIIIII
AAAAAAAAAAAAAAAAAAAAAAAAAAAAAAAAA11IIIIIIIIIIIIIIIIIIIIIIIIIIIII
AAAAAAAAAAAAAAAAAAAAAAAAAAAAAAAAAA11IIIIIIIIIIIIIIIIIIIIIIIIIIII
AAAAAAAAAAAAAAAAAAAAAAAAAAAAAAAAAAA11IIIIIIIIIIIIIIIIIIIIIIIIIII
AAAAAAAAAAAAAAAAAAAAAAAAAAAAAAAAAAAA11IIIIIIIIIIIIIIIIIIIIIIIIII
AAAAAAAAAAAAAAAAAAAAAAAAAAAAAAAAAAAAA11IIIIIIIIIIIIIIIIIIIIIIIII
AAAAAAAAAAAAAAAAAAAAAAAAAAAAAAAAAAAAAA11IIIIIIIIIIIIIIIIIIIIIIII
AAAAAAAAAAAAAAAAAAAAAAAAAAAAAAAAAAAAAAA11IIIIIIIIIIIIIIIIIIIIIII
AAAAAAAAAAAAAAAAAAAAAAAAAAAAAAAAAAAAAAAA11IIIIIIIIIIIIIIIIIIIIII
AAAAAAAAAAAAAAAAAAAAAAAAAAAAAAAAAAAAAAAAA11IIIIIIIIIIIIIIIIIIIII
AAAAAAAAAAAAAAAAAAAAAAAAAAAAAAAAAAAAAAAAAA11IIIIIIIIIIIIIIIIIIII
AAAAAAAAAAAAAAAAAAAAAAAAAAAAAAAAAAAAAAAAAAA11IIIIIIIIIIIIIIIIIII
AAAAAAAAAAAAAAAAAAAAAAAAAAAAAAAAAAAAAAAAAAAA11IIIIIIIIIIIIIIIIII
AAAAAAAAAAAAAAAAAAAAAAAAAAAAAAAAAAAAAAAAAAAAA11IIIIIIIIIIIIIIIII
AAAAAAAAAAAAAAAAAAAAAAAAAAAAAAAAAAAAAAAAAAAAAA11IIIIIIIIIIIIIIII
AAAAAAAAAAAAAAAAAAAAAAAAAAAAAAAAAAAAAAAAAAAAAAA11IIIIIIIIIIIIIII
AAAAAAAAAAAAAAAAAAAAAAAAAAAAAAAAAAAAAAAAAAAAAAAA11IIIIIIIIIIIIII
AAAAAAAAAAAAAAAAAAAAAAAAAAAAAAAAAAAAAAAAAAAAAAAAA11IIIIIIIIIIIII
AAAAAAAAAAAAAAAAAAAAAAAAAAAAAAAAAAAAAAAAAAAAAAAAAA11IIIIIIIIIIII
AAAAAAAAAAAAAAAAAAAAAAAAAAAAAAAAAAAAAAAAAAAAAAAAAAA11IIIIIIIIIII
AAAAAAAAAAAAAAAAAAAAAAAAAAAAAAAAAAAAAAAAAAAAAAAAAAAA11IIIIIIIIII
AAAAAAAAAAAAAAAAAAAAAAAAAAAAAAAAAAAAAAAAAAAAAAAAAAAAA11IIIIIIIII
AAAAAAAAAAAAAAAAAAAAAAAAAAAAAAAAAAAAAAAAAAAAAAAAAAAAAA11IIIIIIII
AAAAAAAAAAAAAAAAAAAAAAAAAAAAAAAAAAAAAAAAAAAAAAAAAAAAAAA11IIIIIII
AAAAAAAAAAAAAAAAAAAAAAAAAAAAAAAAAAAAAAAAAAAAAAAAAAAAAAAA11IIIIII
AAAAAAAAAAAAAAAAAAAAAAAAAAAAAAAAAAAAAAAAAAAAAAAAAAAAAAAAA11IIIII
AAAAAAAAAAAAAAAAAAAAAAAAAAAAAAAAAAAAAAAAAAAAAAAAAAAAAAAAAA11IIII
AAAAAAAAAAAAAAAAAAAAAAAAAAAAAAAAAAAAAAAAAAAAAAAAAAAAAAAAAAA11III
AAAAAAAAAAAAAAAAAAAAAAAAAAAAAAAAAAAAAAAAAAAAAAAAAAAAAAAAAAAA11II
AAAAAAAAAAAAAAAAAAAAAAAAAAAAAAAAAAAAAAAAAAAAAAAAAAAAAAAAAAAAA11I
AAAAAAAAAAAAAAAAAAAAAAAAAAAAAAAAAAAAAAAAAAAAAAAAAAAAAAAAAAAAAA11
AAAAAAAAAAAAAAAAAAAAAAAAAAAAAAAAAAAAAAAAAAAAAAAAAAAAAAAAAAAAAAA1
AAAAAAAAAAAAAAAAAAAAAAAAAAAAAAAAAAAAAAAAAAAAAAAAAAAAAAAAAAAAAAAA
[MLOP] Prefetch Degree Mean: 2.94118
[MLOP] Prefetch Degree SD: 0.235294
[MLOP] Max Score Left Mean (%): 88.7765
[MLOP] Max Score Left SD (%): 3.74033
[MLOP] Max Score Right Mean (%): 100
[MLOP] Max Score Right SD (%): 0
=== CPU 2 L1D Prefetcher Statistics ===
[MLOP] History of tracked zone:
IIIIIIIIIIIIIIIIIIIIIIIIIIIIIIIIIIIIIIIIIIIIIIIIIIIIIIIIIIIIIIII
A11IIIIIIIIIIIIIIIIIIIIIIIIIIIIIIIIIIIIIIIIIIIIIIIIIIIIIIIIIIIII
AA11IIIIIIIIIIIIIIIIIIIIIIIIIIIIIIIIIIIIIIIIIIIIIIIIIIIIIIIIIIII
AAA11IIIIIIIIIIIIIIIIIIIIIIIIIIIIIIIIIIIIIIIIIIIIIIIIIIIIIIIIIII
AAAA11IIIIIIIIIIIIIIIIIIIIIIIIIIIIIIIIIIIIIIIIIIIIIIIIIIIIIIIIII
AAAAA11IIIIIIIIIIIIIIIIIIIIIIIIIIIIIIIIIIIIIIIIIIIIIIIIIIIIIIIII
AAAAAA11IIIIIIIIIIIIIIIIIIIIIIIIIIIIIIIIIIIIIIIIIIIIIIIIIIIIIIII
AAAAAAA11IIIIIIIIIIIIIIIIIIIIIIIIIIIIIIIIIIIIIIIIIIIIIIIIIIIIIII
AAAAAAAA11IIIIIIIIIIIIIIIIIIIIIIIIIIIIIIIIIIIIIIIIIIIIIIIIIIIIII
AAAAAAAAA11IIIIIIIIIIIIIIIIIIIIIIIIIIIIIIIIIIIIIIIIIIIIIIIIIIIII
AAAAAAAAAA11IIIIIIIIIIIIIIIIIIIIIIIIIIIIIIIIIIIIIIIIIIIIIIIIIIII
AAAAAAAAAAA11IIIIIIIIIIIIIIIIIIIIIIIIIIIIIIIIIIIIIIIIIIIIIIIIIII
AAAAAAAAAAAA11IIIIIIIIIIIIIIIIIIIIIIIIIIIIIIIIIIIIIIIIIIIIIIIIII
AAAAAAAAAAAAA11IIIIIIIIIIIIIIIIIIIIIIIIIIIIIIIIIIIIIIIIIIIIIIIII
AAAAAAAAAAAAAA11IIIIIIIIIIIIIIIIIIIIIIIIIIIIIIIIIIIIIIIIIIIIIIII
AAAAAAAAAAAAAAA11IIIIIIIIIIIIIIIIIIIIIIIIIIIIIIIIIIIIIIIIIIIIIII
AAAAAAAAAAAAAAAA11IIIIIIIIIIIIIIIIIIIIIIIIIIIIIIIIIIIIIIIIIIIIII
AAAAAAAAAAAAAAAAA11IIIIIIIIIIIIIIIIIIIIIIIIIIIIIIIIIIIIIIIIIIIII
AAAAAAAAAAAAAAAAAA11IIIIIIIIIIIIIIIIIIIIIIIIIIIIIIIIIIIIIIIIIIII
AAAAAAAAAAAAAAAAAAA11IIIIIIIIIIIIIIIIIIIIIIIIIIIIIIIIIIIIIIIIIII
AAAAAAAAAAAAAAAAAAAA11IIIIIIIIIIIIIIIIIIIIIIIIIIIIIIIIIIIIIIIIII
AAAAAAAAAAAAAAAAAAAAA11IIIIIIIIIIIIIIIIIIIIIIIIIIIIIIIIIIIIIIIII
AAAAAAAAAAAAAAAAAAAAAA11IIIIIIIIIIIIIIIIIIIIIIIIIIIIIIIIIIIIIIII
AAAAAAAAAAAAAAAAAAAAAAA11IIIIIIIIIIIIIIIIIIIIIIIIIIIIIIIIIIIIIII
AAAAAAAAAAAAAAAAAAAAAAAA11IIIIIIIIIIIIIIIIIIIIIIIIIIIIIIIIIIIIII
AAAAAAAAAAAAAAAAAAAAAAAAA11IIIIIIIIIIIIIIIIIIIIIIIIIIIIIIIIIIIII
AAAAAAAAAAAAAAAAAAAAAAAAAA11IIIIIIIIIIIIIIIIIIIIIIIIIIIIIIIIIIII
AAAAAAAAAAAAAAAAAAAAAAAAAAA11IIIIIIIIIIIIIIIIIIIIIIIIIIIIIIIIIII
AAAAAAAAAAAAAAAAAAAAAAAAAAAA11IIIIIIIIIIIIIIIIIIIIIIIIIIIIIIIIII
AAAAAAAAAAAAAAAAAAAAAAAAAAAAA11IIIIIIIIIIIIIIIIIIIIIIIIIIIIIIIII
AAAAAAAAAAAAAAAAAAAAAAAAAAAAAA11IIIIIIIIIIIIIIIIIIIIIIIIIIIIIIII
AAAAAAAAAAAAAAAAAAAAAAAAAAAAAAA11IIIIIIIIIIIIIIIIIIIIIIIIIIIIIII
AAAAAAAAAAAAAAAAAAAAAAAAAAAAAAAA11IIIIIIIIIIIIIIIIIIIIIIIIIIIIII
AAAAAAAAAAAAAAAAAAAAAAAAAAAAAAAAA11IIIIIIIIIIIIIIIIIIIIIIIIIIIII
AAAAAAAAAAAAAAAAAAAAAAAAAAAAAAAAAA11IIIIIIIIIIIIIIIIIIIIIIIIIIII
AAAAAAAAAAAAAAAAAAAAAAAAAAAAAAAAAAA11IIIIIIIIIIIIIIIIIIIIIIIIIII
AAAAAAAAAAAAAAAAAAAAAAAAAAAAAAAAAAAA11IIIIIIIIIIIIIIIIIIIIIIIIII
AAAAAAAAAAAAAAAAAAAAAAAAAAAAAAAAAAAAA11IIIIIIIIIIIIIIIIIIIIIIIII
AAAAAAAAAAAAAAAAAAAAAAAAAAAAAAAAAAAAAA11IIIIIIIIIIIIIIIIIIIIIIII
AAAAAAAAAAAAAAAAAAAAAAAAAAAAAAAAAAAAAAA11IIIIIIIIIIIIIIIIIIIIIII
AAAAAAAAAAAAAAAAAAAAAAAAAAAAAAAAAAAAAAAA11IIIIIIIIIIIIIIIIIIIIII
AAAAAAAAAAAAAAAAAAAAAAAAAAAAAAAAAAAAAAAAA11IIIIIIIIIIIIIIIIIIIII
AAAAAAAAAAAAAAAAAAAAAAAAAAAAAAAAAAAAAAAAAA11IIIIIIIIIIIIIIIIIIII
AAAAAAAAAAAAAAAAAAAAAAAAAAAAAAAAAAAAAAAAAAA11IIIIIIIIIIIIIIIIIII
AAAAAAAAAAAAAAAAAAAAAAAAAAAAAAAAAAAAAAAAAAAA11IIIIIIIIIIIIIIIIII
AAAAAAAAAAAAAAAAAAAAAAAAAAAAAAAAAAAAAAAAAAAAA11IIIIIIIIIIIIIIIII
AAAAAAAAAAAAAAAAAAAAAAAAAAAAAAAAAAAAAAAAAAAAAA11IIIIIIIIIIIIIIII
AAAAAAAAAAAAAAAAAAAAAAAAAAAAAAAAAAAAAAAAAAAAAAA11IIIIIIIIIIIIIII
AAAAAAAAAAAAAAAAAAAAAAAAAAAAAAAAAAAAAAAAAAAAAAAA11IIIIIIIIIIIIII
AAAAAAAAAAAAAAAAAAAAAAAAAAAAAAAAAAAAAAAAAAAAAAAAA11IIIIIIIIIIIII
AAAAAAAAAAAAAAAAAAAAAAAAAAAAAAAAAAAAAAAAAAAAAAAAAA11IIIIIIIIIIII
AAAAAAAAAAAAAAAAAAAAAAAAAAAAAAAAAAAAAAAAAAAAAAAAAAA11IIIIIIIIIII
AAAAAAAAAAAAAAAAAAAAAAAAAAAAAAAAAAAAAAAAAAAAAAAAAAAA11IIIIIIIIII
AAAAAAAAAAAAAAAAAAAAAAAAAAAAAAAAAAAAAAAAAAAAAAAAAAAAA11IIIIIIIII
AAAAAAAAAAAAAAAAAAAAAAAAAAAAAAAAAAAAAAAAAAAAAAAAAAAAAA11IIIIIIII
AAAAAAAAAAAAAAAAAAAAAAAAAAAAAAAAAAAAAAAAAAAAAAAAAAAAAAA11IIIIIII
AAAAAAAAAAAAAAAAAAAAAAAAAAAAAAAAAAAAAAAAAAAAAAAAAAAAAAAA11IIIIII
AAAAAAAAAAAAAAAAAAAAAAAAAAAAAAAAAAAAAAAAAAAAAAAAAAAAAAAAA11IIIII
AAAAAAAAAAAAAAAAAAAAAAAAAAAAAAAAAAAAAAAAAAAAAAAAAAAAAAAAAA11IIII
AAAAAAAAAAAAAAAAAAAAAAAAAAAAAAAAAAAAAAAAAAAAAAAAAAAAAAAAAAA11III
AAAAAAAAAAAAAAAAAAAAAAAAAAAAAAAAAAAAAAAAAAAAAAAAAAAAAAAAAAAA11II
AAAAAAAAAAAAAAAAAAAAAAAAAAAAAAAAAAAAAAAAAAAAAAAAAAAAAAAAAAAAA11I
AAAAAAAAAAAAAAAAAAAAAAAAAAAAAAAAAAAAAAAAAAAAAAAAAAAAAAAAAAAAAA11
AAAAAAAAAAAAAAAAAAAAAAAAAAAAAAAAAAAAAAAAAAAAAAAAAAAAAAAAAAAAAAA1
AAAAAAAAAAAAAAAAAAAAAAAAAAAAAAAAAAAAAAAAAAAAAAAAAAAAAAAAAAAAAAAA
[MLOP] Prefetch Degree Mean: 2.94118
[MLOP] Prefetch Degree SD: 0.235294
[MLOP] Max Score Left Mean (%): 88.6941
[MLOP] Max Score Left SD (%): 3.89939
[MLOP] Max Score Right Mean (%): 100
[MLOP] Max Score Right SD (%): 0
=== CPU 3 L1D Prefetcher Statistics ===
[MLOP] History of tracked zone:
IIIIIIIIIIIIIIIIIIIIIIIIIIIIIIIIIIIIIIIIIIIIIIIIIIIIIIIIIIIIIIII
A11IIIIIIIIIIIIIIIIIIIIIIIIIIIIIIIIIIIIIIIIIIIIIIIIIIIIIIIIIIIII
AA11IIIIIIIIIIIIIIIIIIIIIIIIIIIIIIIIIIIIIIIIIIIIIIIIIIIIIIIIIIII
AAA11IIIIIIIIIIIIIIIIIIIIIIIIIIIIIIIIIIIIIIIIIIIIIIIIIIIIIIIIIII
AAAA11IIIIIIIIIIIIIIIIIIIIIIIIIIIIIIIIIIIIIIIIIIIIIIIIIIIIIIIIII
AAAAA11IIIIIIIIIIIIIIIIIIIIIIIIIIIIIIIIIIIIIIIIIIIIIIIIIIIIIIIII
AAAAAA11IIIIIIIIIIIIIIIIIIIIIIIIIIIIIIIIIIIIIIIIIIIIIIIIIIIIIIII
AAAAAAA11IIIIIIIIIIIIIIIIIIIIIIIIIIIIIIIIIIIIIIIIIIIIIIIIIIIIIII
AAAAAAAA11IIIIIIIIIIIIIIIIIIIIIIIIIIIIIIIIIIIIIIIIIIIIIIIIIIIIII
AAAAAAAAA11IIIIIIIIIIIIIIIIIIIIIIIIIIIIIIIIIIIIIIIIIIIIIIIIIIIII
AAAAAAAAAA11IIIIIIIIIIIIIIIIIIIIIIIIIIIIIIIIIIIIIIIIIIIIIIIIIIII
AAAAAAAAAAA11IIIIIIIIIIIIIIIIIIIIIIIIIIIIIIIIIIIIIIIIIIIIIIIIIII
AAAAAAAAAAAA11IIIIIIIIIIIIIIIIIIIIIIIIIIIIIIIIIIIIIIIIIIIIIIIIII
AAAAAAAAAAAAA11IIIIIIIIIIIIIIIIIIIIIIIIIIIIIIIIIIIIIIIIIIIIIIIII
AAAAAAAAAAAAAA11IIIIIIIIIIIIIIIIIIIIIIIIIIIIIIIIIIIIIIIIIIIIIIII
AAAAAAAAAAAAAAA11IIIIIIIIIIIIIIIIIIIIIIIIIIIIIIIIIIIIIIIIIIIIIII
AAAAAAAAAAAAAAAA11IIIIIIIIIIIIIIIIIIIIIIIIIIIIIIIIIIIIIIIIIIIIII
AAAAAAAAAAAAAAAAA11IIIIIIIIIIIIIIIIIIIIIIIIIIIIIIIIIIIIIIIIIIIII
AAAAAAAAAAAAAAAAAA11IIIIIIIIIIIIIIIIIIIIIIIIIIIIIIIIIIIIIIIIIIII
AAAAAAAAAAAAAAAAAAA11IIIIIIIIIIIIIIIIIIIIIIIIIIIIIIIIIIIIIIIIIII
AAAAAAAAAAAAAAAAAAAA11IIIIIIIIIIIIIIIIIIIIIIIIIIIIIIIIIIIIIIIIII
AAAAAAAAAAAAAAAAAAAAA11IIIIIIIIIIIIIIIIIIIIIIIIIIIIIIIIIIIIIIIII
AAAAAAAAAAAAAAAAAAAAAA11IIIIIIIIIIIIIIIIIIIIIIIIIIIIIIIIIIIIIIII
AAAAAAAAAAAAAAAAAAAAAAA11IIIIIIIIIIIIIIIIIIIIIIIIIIIIIIIIIIIIIII
AAAAAAAAAAAAAAAAAAAAAAAA11IIIIIIIIIIIIIIIIIIIIIIIIIIIIIIIIIIIIII
AAAAAAAAAAAAAAAAAAAAAAAAA11IIIIIIIIIIIIIIIIIIIIIIIIIIIIIIIIIIIII
AAAAAAAAAAAAAAAAAAAAAAAAAA11IIIIIIIIIIIIIIIIIIIIIIIIIIIIIIIIIIII
AAAAAAAAAAAAAAAAAAAAAAAAAAA11IIIIIIIIIIIIIIIIIIIIIIIIIIIIIIIIIII
AAAAAAAAAAAAAAAAAAAAAAAAAAAA11IIIIIIIIIIIIIIIIIIIIIIIIIIIIIIIIII
AAAAAAAAAAAAAAAAAAAAAAAAAAAAA11IIIIIIIIIIIIIIIIIIIIIIIIIIIIIIIII
AAAAAAAAAAAAAAAAAAAAAAAAAAAAAA11IIIIIIIIIIIIIIIIIIIIIIIIIIIIIIII
AAAAAAAAAAAAAAAAAAAAAAAAAAAAAAA11IIIIIIIIIIIIIIIIIIIIIIIIIIIIIII
AAAAAAAAAAAAAAAAAAAAAAAAAAAAAAAA11IIIIIIIIIIIIIIIIIIIIIIIIIIIIII
AAAAAAAAAAAAAAAAAAAAAAAAAAAAAAAAA11IIIIIIIIIIIIIIIIIIIIIIIIIIIII
AAAAAAAAAAAAAAAAAAAAAAAAAAAAAAAAAA11IIIIIIIIIIIIIIIIIIIIIIIIIIII
AAAAAAAAAAAAAAAAAAAAAAAAAAAAAAAAAAA11IIIIIIIIIIIIIIIIIIIIIIIIIII
AAAAAAAAAAAAAAAAAAAAAAAAAAAAAAAAAAAA11IIIIIIIIIIIIIIIIIIIIIIIIII
AAAAAAAAAAAAAAAAAAAAAAAAAAAAAAAAAAAAA11IIIIIIIIIIIIIIIIIIIIIIIII
AAAAAAAAAAAAAAAAAAAAAAAAAAAAAAAAAAAAAA11IIIIIIIIIIIIIIIIIIIIIIII
AAAAAAAAAAAAAAAAAAAAAAAAAAAAAAAAAAAAAAA11IIIIIIIIIIIIIIIIIIIIIII
AAAAAAAAAAAAAAAAAAAAAAAAAAAAAAAAAAAAAAAA11IIIIIIIIIIIIIIIIIIIIII
AAAAAAAAAAAAAAAAAAAAAAAAAAAAAAAAAAAAAAAAA11IIIIIIIIIIIIIIIIIIIII
AAAAAAAAAAAAAAAAAAAAAAAAAAAAAAAAAAAAAAAAAA11IIIIIIIIIIIIIIIIIIII
AAAAAAAAAAAAAAAAAAAAAAAAAAAAAAAAAAAAAAAAAAA11IIIIIIIIIIIIIIIIIII
AAAAAAAAAAAAAAAAAAAAAAAAAAAAAAAAAAAAAAAAAAAA11IIIIIIIIIIIIIIIIII
AAAAAAAAAAAAAAAAAAAAAAAAAAAAAAAAAAAAAAAAAAAAA11IIIIIIIIIIIIIIIII
AAAAAAAAAAAAAAAAAAAAAAAAAAAAAAAAAAAAAAAAAAAAAA11IIIIIIIIIIIIIIII
AAAAAAAAAAAAAAAAAAAAAAAAAAAAAAAAAAAAAAAAAAAAAAA11IIIIIIIIIIIIIII
AAAAAAAAAAAAAAAAAAAAAAAAAAAAAAAAAAAAAAAAAAAAAAAA11IIIIIIIIIIIIII
AAAAAAAAAAAAAAAAAAAAAAAAAAAAAAAAAAAAAAAAAAAAAAAAA11IIIIIIIIIIIII
AAAAAAAAAAAAAAAAAAAAAAAAAAAAAAAAAAAAAAAAAAAAAAAAAA11IIIIIIIIIIII
AAAAAAAAAAAAAAAAAAAAAAAAAAAAAAAAAAAAAAAAAAAAAAAAAAA11IIIIIIIIIII
AAAAAAAAAAAAAAAAAAAAAAAAAAAAAAAAAAAAAAAAAAAAAAAAAAAA11IIIIIIIIII
AAAAAAAAAAAAAAAAAAAAAAAAAAAAAAAAAAAAAAAAAAAAAAAAAAAAA11IIIIIIIII
AAAAAAAAAAAAAAAAAAAAAAAAAAAAAAAAAAAAAAAAAAAAAAAAAAAAAA11IIIIIIII
AAAAAAAAAAAAAAAAAAAAAAAAAAAAAAAAAAAAAAAAAAAAAAAAAAAAAAA11IIIIIII
AAAAAAAAAAAAAAAAAAAAAAAAAAAAAAAAAAAAAAAAAAAAAAAAAAAAAAAA11IIIIII
AAAAAAAAAAAAAAAAAAAAAAAAAAAAAAAAAAAAAAAAAAAAAAAAAAAAAAAAA11IIIII
AAAAAAAAAAAAAAAAAAAAAAAAAAAAAAAAAAAAAAAAAAAAAAAAAAAAAAAAAA11IIII
AAAAAAAAAAAAAAAAAAAAAAAAAAAAAAAAAAAAAAAAAAAAAAAAAAAAAAAAAAA11III
AAAAAAAAAAAAAAAAAAAAAAAAAAAAAAAAAAAAAAAAAAAAAAAAAAAAAAAAAAAA11II
AAAAAAAAAAAAAAAAAAAAAAAAAAAAAAAAAAAAAAAAAAAAAAAAAAAAAAAAAAAAA11I
AAAAAAAAAAAAAAAAAAAAAAAAAAAAAAAAAAAAAAAAAAAAAAAAAAAAAAAAAAAAAA11
AAAAAAAAAAAAAAAAAAAAAAAAAAAAAAAAAAAAAAAAAAAAAAAAAAAAAAAAAAAAAAA1
AAAAAAAAAAAAAAAAAAAAAAAAAAAAAAAAAAAAAAAAAAAAAAAAAAAAAAAAAAAAAAAA
[MLOP] Prefetch Degree Mean: 2.94444
[MLOP] Prefetch Degree SD: 0.229061
[MLOP] Max Score Left Mean (%): 89.0111
[MLOP] Max Score Left SD (%): 3.82127
[MLOP] Max Score Right Mean (%): 100
[MLOP] Max Score Right SD (%): 0

DRAM Statistics
 CHANNEL 0
 RQ ROW_BUFFER_HIT:    2464172  ROW_BUFFER_MISS:    2590464
 DBUS_CONGESTED:          9
 WQ ROW_BUFFER_HIT:     381769  ROW_BUFFER_MISS:    2299834  FULL:          0

 AVG_CONGESTED_CYCLE: 6
 All warmup complete: 5
Channel 0 Bank busy for read cycles: 0
Channel 0 Bank busy for write cycles: 0
Channel 0
Rank 0
0banks busy for read cycles: 105109
0banks busy for write cycles: 0
1banks busy for read cycles: 6266487
1banks busy for write cycles: 300570
2banks busy for read cycles: 13632123
2banks busy for write cycles: 300567
3banks busy for read cycles: 18019366
3banks busy for write cycles: 300561
4banks busy for read cycles: 20465135
4banks busy for write cycles: 300560
5banks busy for read cycles: 22688135
5banks busy for write cycles: 300863
6banks busy for read cycles: 21070378
6banks busy for write cycles: 350545
7banks busy for read cycles: 13601192
7banks busy for write cycles: 4033916
8banks busy for read cycles: 5106228
8banks busy for write cycles: 54029636

CPU 0 Branch Prediction Accuracy: 99.6394% MPKI: 1.36382 Average ROB Occupancy at Mispredict: 58.5438
Branch types
NOT_BRANCH: 124372542 62.1767%
BRANCH_DIRECT_JUMP: 0 0%
BRANCH_INDIRECT: 0 0%
BRANCH_CONDITIONAL: 75657894 37.8232%
BRANCH_DIRECT_CALL: 0 0%
BRANCH_INDIRECT_CALL: 0 0%
BRANCH_RETURN: 0 0%
BRANCH_OTHER: 0 0%


CPU 1 Branch Prediction Accuracy: 99.6394% MPKI: 1.3639 Average ROB Occupancy at Mispredict: 58.5267
Branch types
NOT_BRANCH: 124363580 62.1768%
BRANCH_DIRECT_JUMP: 0 0%
BRANCH_INDIRECT: 0 0%
BRANCH_CONDITIONAL: 75652488 37.8232%
BRANCH_DIRECT_CALL: 0 0%
BRANCH_INDIRECT_CALL: 0 0%
BRANCH_RETURN: 0 0%
BRANCH_OTHER: 0 0%


CPU 2 Branch Prediction Accuracy: 99.6394% MPKI: 1.36383 Average ROB Occupancy at Mispredict: 58.5071
Branch types
NOT_BRANCH: 124371074 62.1767%
BRANCH_DIRECT_JUMP: 0 0%
BRANCH_INDIRECT: 0 0%
BRANCH_CONDITIONAL: 75657002 37.8231%
BRANCH_DIRECT_CALL: 0 0%
BRANCH_INDIRECT_CALL: 0 0%
BRANCH_RETURN: 0 0%
BRANCH_OTHER: 0 0%


CPU 3 Branch Prediction Accuracy: 99.6394% MPKI: 1.36394 Average ROB Occupancy at Mispredict: 58.5278
Branch types
NOT_BRANCH: 124353318 62.1767%
BRANCH_DIRECT_JUMP: 0 0%
BRANCH_INDIRECT: 0 0%
BRANCH_CONDITIONAL: 75646312 37.8232%
BRANCH_DIRECT_CALL: 0 0%
BRANCH_INDIRECT_CALL: 0 0%
BRANCH_RETURN: 0 0%
BRANCH_OTHER: 0 0%

DRAM PAGES: 1048576
Allocated PAGES: 99528
