
*** ChampSim Multicore Out-of-Order Simulator ***

Warmup Instructions: 50000000
Simulation Instructions: 200000000
Number of CPUs: 4
LLC sets: 8192
LLC ways: 16
Off-chip DRAM Size: 4096 MB Channels: 1 Width: 64-bit Data Rate: 6400 MT/s
CPU 0 runs ./traces/spec/429.mcf-22B.champsimtrace.xz
.xz
CPU 1 runs ./traces/spec/429.mcf-22B.champsimtrace.xz
.xz
CPU 2 runs ./traces/spec/429.mcf-22B.champsimtrace.xz
.xz
CPU 3 runs ./traces/spec/429.mcf-22B.champsimtrace.xz
.xz
BTB has LRU replacement policy
ITLB has LRU replacement policy
DTLB has LRU replacement policy
STLB has LRU replacement policy
L1I has LRU replacement policy
L1D has LRU replacement policy
Initialize SRRIP state for L2C
Initialize DRRIP state for LLC
BTB has LRU replacement policy
ITLB has LRU replacement policy
DTLB has LRU replacement policy
STLB has LRU replacement policy
L1I has LRU replacement policy
L1D has LRU replacement policy
Initialize SRRIP state for L2C
Initialize DRRIP state for LLC
BTB has LRU replacement policy
ITLB has LRU replacement policy
DTLB has LRU replacement policy
STLB has LRU replacement policy
L1I has LRU replacement policy
L1D has LRU replacement policy
Initialize SRRIP state for L2C
Initialize DRRIP state for LLC
BTB has LRU replacement policy
ITLB has LRU replacement policy
DTLB has LRU replacement policy
STLB has LRU replacement policy
L1I has LRU replacement policy
L1D has LRU replacement policy
Initialize SRRIP state for L2C
Initialize DRRIP state for LLC
Heartbeat CPU 0 instructions: 10000001 cycles: 2788448 heartbeat IPC: 3.58622 cumulative IPC: 3.58622 (Simulation time: 0 hr 3 min 5 sec) 
Heartbeat CPU 2 instructions: 10000001 cycles: 2790080 heartbeat IPC: 3.58413 cumulative IPC: 3.58413 (Simulation time: 0 hr 3 min 5 sec) 
Heartbeat CPU 3 instructions: 10000001 cycles: 2791997 heartbeat IPC: 3.58167 cumulative IPC: 3.58167 (Simulation time: 0 hr 3 min 5 sec) 
Heartbeat CPU 1 instructions: 10000001 cycles: 2793920 heartbeat IPC: 3.5792 cumulative IPC: 3.5792 (Simulation time: 0 hr 3 min 5 sec) 
Heartbeat CPU 0 instructions: 20000002 cycles: 6058834 heartbeat IPC: 3.05774 cumulative IPC: 3.30097 (Simulation time: 0 hr 6 min 32 sec) 
Heartbeat CPU 2 instructions: 20000002 cycles: 6065551 heartbeat IPC: 3.053 cumulative IPC: 3.29731 (Simulation time: 0 hr 6 min 33 sec) 
Heartbeat CPU 3 instructions: 20000002 cycles: 6073080 heartbeat IPC: 3.04777 cumulative IPC: 3.29322 (Simulation time: 0 hr 6 min 33 sec) 
Heartbeat CPU 1 instructions: 20000002 cycles: 6073607 heartbeat IPC: 3.04907 cumulative IPC: 3.29294 (Simulation time: 0 hr 6 min 33 sec) 
Heartbeat CPU 0 instructions: 30000001 cycles: 8826116 heartbeat IPC: 3.61365 cumulative IPC: 3.399 (Simulation time: 0 hr 9 min 53 sec) 
Heartbeat CPU 2 instructions: 30000001 cycles: 8835009 heartbeat IPC: 3.61081 cumulative IPC: 3.39558 (Simulation time: 0 hr 9 min 53 sec) 
Heartbeat CPU 3 instructions: 30000001 cycles: 8843442 heartbeat IPC: 3.60964 cumulative IPC: 3.39234 (Simulation time: 0 hr 9 min 54 sec) 
Heartbeat CPU 1 instructions: 30000001 cycles: 8845072 heartbeat IPC: 3.6082 cumulative IPC: 3.39172 (Simulation time: 0 hr 9 min 54 sec) 
Heartbeat CPU 0 instructions: 40000001 cycles: 11582899 heartbeat IPC: 3.62742 cumulative IPC: 3.45337 (Simulation time: 0 hr 12 min 59 sec) 
Heartbeat CPU 2 instructions: 40000001 cycles: 11591614 heartbeat IPC: 3.62765 cumulative IPC: 3.45077 (Simulation time: 0 hr 13 min 0 sec) 
Heartbeat CPU 1 instructions: 40000001 cycles: 11601020 heartbeat IPC: 3.62852 cumulative IPC: 3.44797 (Simulation time: 0 hr 13 min 0 sec) 
Heartbeat CPU 3 instructions: 40000001 cycles: 11601893 heartbeat IPC: 3.62522 cumulative IPC: 3.44771 (Simulation time: 0 hr 13 min 0 sec) 
Heartbeat CPU 0 instructions: 50000002 cycles: 14503308 heartbeat IPC: 3.42418 cumulative IPC: 3.44749 (Simulation time: 0 hr 16 min 33 sec) 
Heartbeat CPU 2 instructions: 50000002 cycles: 14517563 heartbeat IPC: 3.41769 cumulative IPC: 3.4441 (Simulation time: 0 hr 16 min 34 sec) 
Heartbeat CPU 1 instructions: 50000002 cycles: 14530718 heartbeat IPC: 3.41332 cumulative IPC: 3.44099 (Simulation time: 0 hr 16 min 35 sec) 
Heartbeat CPU 3 instructions: 50000002 cycles: 14534584 heartbeat IPC: 3.40984 cumulative IPC: 3.44007 (Simulation time: 0 hr 16 min 35 sec) 

Warmup complete CPU 0 instructions: 50103098 cycles: 14534584 (Simulation time: 0 hr 16 min 35 sec) 
Warmup complete CPU 1 instructions: 50012533 cycles: 14534584 (Simulation time: 0 hr 16 min 35 sec) 
Warmup complete CPU 2 instructions: 50056872 cycles: 14534584 (Simulation time: 0 hr 16 min 35 sec) 
Warmup complete CPU 3 instructions: 50000002 cycles: 14534584 (Simulation time: 0 hr 16 min 35 sec) 

Heartbeat CPU 0 instructions: 60000000 cycles: 68253638 heartbeat IPC: 0.186045 cumulative IPC: 0.184234 (Simulation time: 0 hr 23 min 14 sec) 
Heartbeat CPU 3 instructions: 60000000 cycles: 68277333 heartbeat IPC: 0.186072 cumulative IPC: 0.186072 (Simulation time: 0 hr 23 min 14 sec) 
Heartbeat CPU 2 instructions: 60000000 cycles: 68505149 heartbeat IPC: 0.185228 cumulative IPC: 0.184232 (Simulation time: 0 hr 23 min 16 sec) 
Heartbeat CPU 1 instructions: 60000000 cycles: 68724902 heartbeat IPC: 0.184522 cumulative IPC: 0.184304 (Simulation time: 0 hr 23 min 17 sec) 
Heartbeat CPU 0 instructions: 70000001 cycles: 118458037 heartbeat IPC: 0.199186 cumulative IPC: 0.191457 (Simulation time: 0 hr 29 min 48 sec) 
Heartbeat CPU 3 instructions: 70000001 cycles: 118499801 heartbeat IPC: 0.199114 cumulative IPC: 0.192372 (Simulation time: 0 hr 29 min 49 sec) 
Heartbeat CPU 1 instructions: 70000001 cycles: 119219227 heartbeat IPC: 0.198042 cumulative IPC: 0.19093 (Simulation time: 0 hr 29 min 56 sec) 
Heartbeat CPU 2 instructions: 70000001 cycles: 119316779 heartbeat IPC: 0.196805 cumulative IPC: 0.190329 (Simulation time: 0 hr 29 min 57 sec) 
Heartbeat CPU 3 instructions: 80000001 cycles: 172345715 heartbeat IPC: 0.185715 cumulative IPC: 0.190101 (Simulation time: 0 hr 37 min 14 sec) 
Heartbeat CPU 0 instructions: 80000002 cycles: 173107466 heartbeat IPC: 0.182985 cumulative IPC: 0.188537 (Simulation time: 0 hr 37 min 19 sec) 
Heartbeat CPU 1 instructions: 80000001 cycles: 173974275 heartbeat IPC: 0.182632 cumulative IPC: 0.18808 (Simulation time: 0 hr 37 min 23 sec) 
Heartbeat CPU 2 instructions: 80000001 cycles: 175031959 heartbeat IPC: 0.179484 cumulative IPC: 0.186565 (Simulation time: 0 hr 37 min 29 sec) 
Heartbeat CPU 3 instructions: 90000001 cycles: 225024951 heartbeat IPC: 0.189828 cumulative IPC: 0.190032 (Simulation time: 0 hr 43 min 42 sec) 
Heartbeat CPU 0 instructions: 90000001 cycles: 225700464 heartbeat IPC: 0.190139 cumulative IPC: 0.188936 (Simulation time: 0 hr 43 min 51 sec) 
Heartbeat CPU 1 instructions: 90000001 cycles: 226248104 heartbeat IPC: 0.1913 cumulative IPC: 0.188875 (Simulation time: 0 hr 44 min 0 sec) 
Heartbeat CPU 2 instructions: 90000001 cycles: 227806231 heartbeat IPC: 0.189486 cumulative IPC: 0.187288 (Simulation time: 0 hr 44 min 21 sec) 
Heartbeat CPU 3 instructions: 100000003 cycles: 262125966 heartbeat IPC: 0.269534 cumulative IPC: 0.201946 (Simulation time: 0 hr 49 min 2 sec) 
Heartbeat CPU 0 instructions: 100000003 cycles: 262555871 heartbeat IPC: 0.271331 cumulative IPC: 0.20118 (Simulation time: 0 hr 49 min 9 sec) 
Heartbeat CPU 1 instructions: 100000003 cycles: 263103128 heartbeat IPC: 0.271333 cumulative IPC: 0.201101 (Simulation time: 0 hr 49 min 17 sec) 
Heartbeat CPU 2 instructions: 100000003 cycles: 265211334 heartbeat IPC: 0.267343 cumulative IPC: 0.199233 (Simulation time: 0 hr 49 min 42 sec) 
Heartbeat CPU 3 instructions: 110000000 cycles: 304819781 heartbeat IPC: 0.234226 cumulative IPC: 0.206693 (Simulation time: 0 hr 54 min 59 sec) 
Heartbeat CPU 0 instructions: 110000000 cycles: 305260108 heartbeat IPC: 0.234169 cumulative IPC: 0.206026 (Simulation time: 0 hr 55 min 4 sec) 
Heartbeat CPU 1 instructions: 110000000 cycles: 306026215 heartbeat IPC: 0.232975 cumulative IPC: 0.205795 (Simulation time: 0 hr 55 min 11 sec) 
Heartbeat CPU 2 instructions: 110000000 cycles: 309516469 heartbeat IPC: 0.225707 cumulative IPC: 0.20321 (Simulation time: 0 hr 55 min 46 sec) 
Heartbeat CPU 3 instructions: 120000003 cycles: 345712816 heartbeat IPC: 0.24454 cumulative IPC: 0.211367 (Simulation time: 1 hr 0 min 40 sec) 
Heartbeat CPU 0 instructions: 120000003 cycles: 346336360 heartbeat IPC: 0.24345 cumulative IPC: 0.210659 (Simulation time: 1 hr 0 min 44 sec) 
Heartbeat CPU 1 instructions: 120000003 cycles: 347621263 heartbeat IPC: 0.240413 cumulative IPC: 0.210118 (Simulation time: 1 hr 0 min 53 sec) 
Heartbeat CPU 2 instructions: 120000003 cycles: 353914665 heartbeat IPC: 0.225234 cumulative IPC: 0.206091 (Simulation time: 1 hr 1 min 27 sec) 
Heartbeat CPU 3 instructions: 130000002 cycles: 411023140 heartbeat IPC: 0.153115 cumulative IPC: 0.201771 (Simulation time: 1 hr 8 min 34 sec) 
Heartbeat CPU 0 instructions: 130000002 cycles: 411251812 heartbeat IPC: 0.154047 cumulative IPC: 0.201395 (Simulation time: 1 hr 8 min 36 sec) 
Heartbeat CPU 1 instructions: 130000003 cycles: 412544167 heartbeat IPC: 0.154029 cumulative IPC: 0.200969 (Simulation time: 1 hr 8 min 45 sec) 
Heartbeat CPU 2 instructions: 130000002 cycles: 417503635 heartbeat IPC: 0.15726 cumulative IPC: 0.198385 (Simulation time: 1 hr 9 min 22 sec) 
Heartbeat CPU 3 instructions: 140000003 cycles: 481603448 heartbeat IPC: 0.141683 cumulative IPC: 0.192691 (Simulation time: 1 hr 16 min 38 sec) 
Heartbeat CPU 0 instructions: 140000003 cycles: 481926928 heartbeat IPC: 0.141493 cumulative IPC: 0.192337 (Simulation time: 1 hr 16 min 40 sec) 
Heartbeat CPU 1 instructions: 140000003 cycles: 483311475 heartbeat IPC: 0.141308 cumulative IPC: 0.191962 (Simulation time: 1 hr 16 min 48 sec) 
Heartbeat CPU 2 instructions: 140000003 cycles: 492074284 heartbeat IPC: 0.134101 cumulative IPC: 0.188347 (Simulation time: 1 hr 18 min 3 sec) 
Heartbeat CPU 3 instructions: 150000000 cycles: 534962309 heartbeat IPC: 0.18741 cumulative IPC: 0.19215 (Simulation time: 1 hr 23 min 32 sec) 
Heartbeat CPU 0 instructions: 150000000 cycles: 535750323 heartbeat IPC: 0.185793 cumulative IPC: 0.191661 (Simulation time: 1 hr 23 min 40 sec) 
Heartbeat CPU 1 instructions: 150000000 cycles: 537006138 heartbeat IPC: 0.186238 cumulative IPC: 0.191374 (Simulation time: 1 hr 23 min 53 sec) 
Heartbeat CPU 2 instructions: 150000000 cycles: 547662733 heartbeat IPC: 0.179893 cumulative IPC: 0.187465 (Simulation time: 1 hr 25 min 19 sec) 
Heartbeat CPU 3 instructions: 160000000 cycles: 589168501 heartbeat IPC: 0.184481 cumulative IPC: 0.191426 (Simulation time: 1 hr 30 min 16 sec) 
Heartbeat CPU 0 instructions: 160000000 cycles: 589727983 heartbeat IPC: 0.185262 cumulative IPC: 0.191061 (Simulation time: 1 hr 30 min 21 sec) 
Heartbeat CPU 1 instructions: 160000000 cycles: 590669495 heartbeat IPC: 0.186347 cumulative IPC: 0.190906 (Simulation time: 1 hr 30 min 30 sec) 
Heartbeat CPU 2 instructions: 160000000 cycles: 601398233 heartbeat IPC: 0.186097 cumulative IPC: 0.18734 (Simulation time: 1 hr 31 min 55 sec) 
Heartbeat CPU 3 instructions: 170000000 cycles: 631063922 heartbeat IPC: 0.23869 cumulative IPC: 0.194638 (Simulation time: 1 hr 35 min 41 sec) 
Heartbeat CPU 0 instructions: 170000000 cycles: 631754383 heartbeat IPC: 0.237946 cumulative IPC: 0.194253 (Simulation time: 1 hr 35 min 47 sec) 
Heartbeat CPU 1 instructions: 170000000 cycles: 633087400 heartbeat IPC: 0.235749 cumulative IPC: 0.193981 (Simulation time: 1 hr 36 min 0 sec) 
Heartbeat CPU 2 instructions: 170000000 cycles: 644016410 heartbeat IPC: 0.234642 cumulative IPC: 0.190543 (Simulation time: 1 hr 37 min 36 sec) 
Heartbeat CPU 3 instructions: 180000003 cycles: 672261712 heartbeat IPC: 0.242732 cumulative IPC: 0.19765 (Simulation time: 1 hr 41 min 53 sec) 
Heartbeat CPU 0 instructions: 180000003 cycles: 672705043 heartbeat IPC: 0.244196 cumulative IPC: 0.197361 (Simulation time: 1 hr 41 min 57 sec) 
Heartbeat CPU 1 instructions: 180000003 cycles: 673877565 heartbeat IPC: 0.245157 cumulative IPC: 0.197147 (Simulation time: 1 hr 42 min 8 sec) 
Heartbeat CPU 2 instructions: 180000003 cycles: 684928874 heartbeat IPC: 0.244424 cumulative IPC: 0.193831 (Simulation time: 1 hr 43 min 38 sec) 
Heartbeat CPU 3 instructions: 190000000 cycles: 722862575 heartbeat IPC: 0.197625 cumulative IPC: 0.197649 (Simulation time: 1 hr 48 min 11 sec) 
Heartbeat CPU 0 instructions: 190000000 cycles: 723170350 heartbeat IPC: 0.198156 cumulative IPC: 0.197417 (Simulation time: 1 hr 48 min 14 sec) 
Heartbeat CPU 1 instructions: 190000000 cycles: 724592731 heartbeat IPC: 0.19718 cumulative IPC: 0.197149 (Simulation time: 1 hr 48 min 27 sec) 
Heartbeat CPU 2 instructions: 190000000 cycles: 738037987 heartbeat IPC: 0.188292 cumulative IPC: 0.193424 (Simulation time: 1 hr 50 min 33 sec) 
Heartbeat CPU 3 instructions: 200000003 cycles: 759364693 heartbeat IPC: 0.273957 cumulative IPC: 0.201388 (Simulation time: 1 hr 54 min 1 sec) 
Heartbeat CPU 0 instructions: 200000003 cycles: 759647433 heartbeat IPC: 0.274145 cumulative IPC: 0.201173 (Simulation time: 1 hr 54 min 5 sec) 
Heartbeat CPU 1 instructions: 200000003 cycles: 760664952 heartbeat IPC: 0.277222 cumulative IPC: 0.20102 (Simulation time: 1 hr 54 min 15 sec) 
Heartbeat CPU 2 instructions: 200000003 cycles: 774722478 heartbeat IPC: 0.272595 cumulative IPC: 0.197245 (Simulation time: 1 hr 56 min 13 sec) 
Heartbeat CPU 3 instructions: 210000002 cycles: 805957124 heartbeat IPC: 0.214627 cumulative IPC: 0.202168 (Simulation time: 1 hr 59 min 49 sec) 
Heartbeat CPU 0 instructions: 210000002 cycles: 806730319 heartbeat IPC: 0.212391 cumulative IPC: 0.20184 (Simulation time: 1 hr 59 min 54 sec) 
Heartbeat CPU 1 instructions: 210000002 cycles: 807376559 heartbeat IPC: 0.21408 cumulative IPC: 0.20179 (Simulation time: 1 hr 59 min 58 sec) 
Heartbeat CPU 2 instructions: 210000002 cycles: 823193681 heartbeat IPC: 0.206308 cumulative IPC: 0.197788 (Simulation time: 2 hr 1 min 27 sec) 
Heartbeat CPU 3 instructions: 220000000 cycles: 881072934 heartbeat IPC: 0.133128 cumulative IPC: 0.196183 (Simulation time: 2 hr 7 min 20 sec) 
Heartbeat CPU 0 instructions: 220000000 cycles: 881940262 heartbeat IPC: 0.132961 cumulative IPC: 0.195868 (Simulation time: 2 hr 7 min 26 sec) 
Heartbeat CPU 1 instructions: 220000000 cycles: 883175687 heartbeat IPC: 0.131928 cumulative IPC: 0.195694 (Simulation time: 2 hr 7 min 34 sec) 
Heartbeat CPU 2 instructions: 220000000 cycles: 904025236 heartbeat IPC: 0.123714 cumulative IPC: 0.191057 (Simulation time: 2 hr 9 min 40 sec) 
Heartbeat CPU 3 instructions: 230000003 cycles: 933807097 heartbeat IPC: 0.18963 cumulative IPC: 0.195807 (Simulation time: 2 hr 13 min 16 sec) 
Heartbeat CPU 0 instructions: 230000003 cycles: 935248454 heartbeat IPC: 0.187588 cumulative IPC: 0.195388 (Simulation time: 2 hr 13 min 30 sec) 
Heartbeat CPU 1 instructions: 230000003 cycles: 935672691 heartbeat IPC: 0.190487 cumulative IPC: 0.195397 (Simulation time: 2 hr 13 min 34 sec) 
Heartbeat CPU 2 instructions: 230000003 cycles: 1029188438 heartbeat IPC: 0.0798957 cumulative IPC: 0.177344 (Simulation time: 2 hr 14 min 54 sec) 
Heartbeat CPU 3 instructions: 240000001 cycles: 1548123245 heartbeat IPC: 0.0162783 cumulative IPC: 0.123892 (Simulation time: 2 hr 18 min 49 sec) 
Heartbeat CPU 0 instructions: 240000001 cycles: 1566524300 heartbeat IPC: 0.0158409 cumulative IPC: 0.122357 (Simulation time: 2 hr 19 min 1 sec) 
Heartbeat CPU 1 instructions: 240000001 cycles: 1569485596 heartbeat IPC: 0.0157775 cumulative IPC: 0.122182 (Simulation time: 2 hr 19 min 7 sec) 
Heartbeat CPU 2 instructions: 240000001 cycles: 1698240569 heartbeat IPC: 0.0149465 cumulative IPC: 0.112813 (Simulation time: 2 hr 20 min 32 sec) 
Heartbeat CPU 3 instructions: 250000000 cycles: 1950121676 heartbeat IPC: 0.0248757 cumulative IPC: 0.103328 (Simulation time: 2 hr 23 min 39 sec) 
Finished CPU 3 instructions: 200000002 cycles: 1935587093 cumulative IPC: 0.103328 (Simulation time: 2 hr 23 min 39 sec) 
Heartbeat CPU 0 instructions: 250000000 cycles: 1969847393 heartbeat IPC: 0.024794 cumulative IPC: 0.102233 (Simulation time: 2 hr 23 min 48 sec) 
Heartbeat CPU 1 instructions: 250000000 cycles: 1972368233 heartbeat IPC: 0.0248211 cumulative IPC: 0.102147 (Simulation time: 2 hr 23 min 50 sec) 
Finished CPU 1 instructions: 200000001 cycles: 1959054324 cumulative IPC: 0.10209 (Simulation time: 2 hr 23 min 51 sec) 
Finished CPU 0 instructions: 200000003 cycles: 1964390572 cumulative IPC: 0.101813 (Simulation time: 2 hr 23 min 53 sec) 
Heartbeat CPU 2 instructions: 250000000 cycles: 2099461613 heartbeat IPC: 0.0249239 cumulative IPC: 0.0958993 (Simulation time: 2 hr 24 min 59 sec) 
Finished CPU 2 instructions: 200000003 cycles: 2088621207 cumulative IPC: 0.095757 (Simulation time: 2 hr 25 min 1 sec) 

ChampSim completed all CPUs

Total Simulation Statistics (not including warmup)

CPU 0 cumulative IPC: 0.0964512 instructions: 201449951 cycles: 2088621207
ITLB TOTAL     ACCESS:   27971209  HIT:   27971208  MISS:          1  HIT %:        100  MISS %: 3.5751e-06   MPKI: 4.96401e-06
ITLB LOAD      ACCESS:          0  HIT:          0  MISS:          0  HIT %:       -nan  MISS %:       -nan   MPKI: 0
ITLB RFO       ACCESS:          0  HIT:          0  MISS:          0  HIT %:       -nan  MISS %:       -nan   MPKI: 0
ITLB PREFETCH  ACCESS:          0  HIT:          0  MISS:          0  HIT %:       -nan  MISS %:       -nan   MPKI: 0
ITLB WRITEBACK ACCESS:          0  HIT:          0  MISS:          0  HIT %:       -nan  MISS %:       -nan   MPKI: 0
DTLB TOTAL     ACCESS:   36412803  HIT:   35476786  MISS:     936017  HIT %:    97.4294  MISS %:    2.57057   MPKI: 4.6464
DTLB LOAD      ACCESS:          0  HIT:          0  MISS:          0  HIT %:       -nan  MISS %:       -nan   MPKI: 0
DTLB RFO       ACCESS:          0  HIT:          0  MISS:          0  HIT %:       -nan  MISS %:       -nan   MPKI: 0
DTLB PREFETCH  ACCESS:          0  HIT:          0  MISS:          0  HIT %:       -nan  MISS %:       -nan   MPKI: 0
DTLB WRITEBACK ACCESS:          0  HIT:          0  MISS:          0  HIT %:       -nan  MISS %:       -nan   MPKI: 0
STLB TOTAL     ACCESS:    4240585  HIT:    3644957  MISS:     595628  HIT %:    85.9541  MISS %:    14.0459   MPKI: 2.9567
STLB LOAD      ACCESS:          0  HIT:          0  MISS:          0  HIT %:       -nan  MISS %:       -nan   MPKI: 0
STLB RFO       ACCESS:          0  HIT:          0  MISS:          0  HIT %:       -nan  MISS %:       -nan   MPKI: 0
STLB PREFETCH  ACCESS:          0  HIT:          0  MISS:          0  HIT %:       -nan  MISS %:       -nan   MPKI: 0
STLB WRITEBACK ACCESS:          0  HIT:          0  MISS:          0  HIT %:       -nan  MISS %:       -nan   MPKI: 0
L1D TOTAL     ACCESS:   77305970  HIT:   69355001  MISS:    7950969  HIT %:    89.7149  MISS %:    10.2851   MPKI: 39.4687
L1D LOAD      ACCESS:   27413641  HIT:   23456891  MISS:    3956750  HIT %:    85.5665  MISS %:    14.4335   MPKI: 19.6414
L1D RFO       ACCESS:   45898787  HIT:   45898064  MISS:        723  HIT %:    99.9984  MISS %: 0.00157521   MPKI: 0.00358898
L1D PREFETCH  ACCESS:    3993542  HIT:         46  MISS:    3993496  HIT %: 0.00115186  MISS %:    99.9988   MPKI: 19.8238
L1D WRITEBACK ACCESS:          0  HIT:          0  MISS:          0  HIT %:       -nan  MISS %:       -nan   MPKI: 0
L1I TOTAL     ACCESS:   42436998  HIT:   42436989  MISS:          9  HIT %:        100  MISS %: 2.12079e-05   MPKI: 4.46761e-05
L1I LOAD      ACCESS:   42436998  HIT:   42436989  MISS:          9  HIT %:        100  MISS %: 2.12079e-05   MPKI: 4.46761e-05
L1I RFO       ACCESS:          0  HIT:          0  MISS:          0  HIT %:       -nan  MISS %:       -nan   MPKI: 0
L1I PREFETCH  ACCESS:          0  HIT:          0  MISS:          0  HIT %:       -nan  MISS %:       -nan   MPKI: 0
L1I WRITEBACK ACCESS:          0  HIT:          0  MISS:          0  HIT %:       -nan  MISS %:       -nan   MPKI: 0
L2C TOTAL     ACCESS:   13049726  HIT:    3956417  MISS:    9093309  HIT %:     30.318  MISS %:     69.682   MPKI: 45.1393
L2C LOAD      ACCESS:    3566833  HIT:     369539  MISS:    3197294  HIT %:    10.3604  MISS %:    89.6396   MPKI: 15.8714
L2C RFO       ACCESS:        723  HIT:        635  MISS:         88  HIT %:    87.8285  MISS %:    12.1715   MPKI: 0.000436833
L2C PREFETCH  ACCESS:    6203712  HIT:     785498  MISS:    5418214  HIT %:    12.6617  MISS %:    87.3383   MPKI: 26.8961
L2C WRITEBACK ACCESS:    2641504  HIT:    2412413  MISS:     229091  HIT %:    91.3273  MISS %:    8.67275   MPKI: 1.13721
PSCL5 TOTAL     ACCESS:     595629  HIT:     595629  MISS:          0  HIT %:        100  MISS %:          0   MPKI: 0
PSCL5 LOAD      ACCESS:          0  HIT:          0  MISS:          0  HIT %:       -nan  MISS %:       -nan   MPKI: 0
PSCL5 RFO       ACCESS:          0  HIT:          0  MISS:          0  HIT %:       -nan  MISS %:       -nan   MPKI: 0
PSCL5 PREFETCH  ACCESS:          0  HIT:          0  MISS:          0  HIT %:       -nan  MISS %:       -nan   MPKI: 0
PSCL5 WRITEBACK ACCESS:          0  HIT:          0  MISS:          0  HIT %:       -nan  MISS %:       -nan   MPKI: 0
PSCL4 TOTAL     ACCESS:     595629  HIT:     595629  MISS:          0  HIT %:        100  MISS %:          0   MPKI: 0
PSCL4 LOAD      ACCESS:          0  HIT:          0  MISS:          0  HIT %:       -nan  MISS %:       -nan   MPKI: 0
PSCL4 RFO       ACCESS:          0  HIT:          0  MISS:          0  HIT %:       -nan  MISS %:       -nan   MPKI: 0
PSCL4 PREFETCH  ACCESS:          0  HIT:          0  MISS:          0  HIT %:       -nan  MISS %:       -nan   MPKI: 0
PSCL4 WRITEBACK ACCESS:          0  HIT:          0  MISS:          0  HIT %:       -nan  MISS %:       -nan   MPKI: 0
PSCL3 TOTAL     ACCESS:     595629  HIT:     595629  MISS:          0  HIT %:        100  MISS %:          0   MPKI: 0
PSCL3 LOAD      ACCESS:          0  HIT:          0  MISS:          0  HIT %:       -nan  MISS %:       -nan   MPKI: 0
PSCL3 RFO       ACCESS:          0  HIT:          0  MISS:          0  HIT %:       -nan  MISS %:       -nan   MPKI: 0
PSCL3 PREFETCH  ACCESS:          0  HIT:          0  MISS:          0  HIT %:       -nan  MISS %:       -nan   MPKI: 0
PSCL3 WRITEBACK ACCESS:          0  HIT:          0  MISS:          0  HIT %:       -nan  MISS %:       -nan   MPKI: 0
PSCL2 TOTAL     ACCESS:     595629  HIT:     554303  MISS:      41326  HIT %:    93.0618  MISS %:    6.93821   MPKI: 0.205143
PSCL2 LOAD      ACCESS:          0  HIT:          0  MISS:          0  HIT %:       -nan  MISS %:       -nan   MPKI: 0
PSCL2 RFO       ACCESS:          0  HIT:          0  MISS:          0  HIT %:       -nan  MISS %:       -nan   MPKI: 0
PSCL2 PREFETCH  ACCESS:          0  HIT:          0  MISS:          0  HIT %:       -nan  MISS %:       -nan   MPKI: 0
PSCL2 WRITEBACK ACCESS:          0  HIT:          0  MISS:          0  HIT %:       -nan  MISS %:       -nan   MPKI: 0
=== CPU 0 L1D Prefetcher Statistics ===
[MLOP] History of tracked zone:
IIIIIIIIIIIIIIIIIIIIIIIIIIIIIIIIIIIIIIIIIIIIIIIIIIIIIIIIIIIIIIII
IIIIIIIIIIIIIIIIIIIIIIIIIIIIIIIIIIIIIIIIIIIIIIIIIIIIIIIIIIII1AII
IIIIIIIIIIIIIIIIIIIIIIIIIIIIIIIIIIIIIIIIIIIIIIIIIIIIIIIIIIII1AAI
IIIIIIIIIIIIIIIIIIIIIIIIIIIIIIIIIIIIIIIIIIIIIIIIIIIIIIIII1AI1AAI
IIIIIIIIIIIIIIIIIIIIIIIIIIIIIIIIIIIIIIIIIIIIIIIIIIIIIIIII1AA1AAI
IIIIIIIIIIIIIIIIIIIIIIIIIIIIIIIIIIIIIIIIIIIIIIIIIIIIII1AI1AA1AA2
IIIIIIIIIIIIIIIIIIIIIIIIIIIIIIIIIIIIIIIIIIIIIIIIIIIIII1AA1AA1AA2
IIIIIIIIIIIIIIIIIIIIIIIIIIIIIIIIIIIIIIIIIIIIIIIIIII1AI1AA1AA1AA2
IIIIIIIIIIIIIIIIIIIIIIIIIIIIIIIIIIIIIIIIIIIIIIIIIII1AA1AA1AA1AA2
IIIIIIIIIIIIIIIIIIIIIIIIIIIIIIIIIIIIIIIIIIIIIIII1AI1AA1AA1AA1AA2
IIIIIIIIIIIIIIIIIIIIIIIIIIIIIIIIIIIIIIIIIIIIIIII1AA1AA1AA1AA1AA2
IIIIIIIIIIIIIIIIIIIIIIIIIIIIIIIIIIIIIIIIIIIII1AI1AA1AA1AA1AA1AA2
IIIIIIIIIIIIIIIIIIIIIIIIIIIIIIIIIIIIIIIIIIIII1AA1AA1AA1AA1AA1AA2
IIIIIIIIIIIIIIIIIIIIIIIIIIIIIIIIIIIIIIIIII1AI1AA1AA1AA1AA1AA1AA2
IIIIIIIIIIIIIIIIIIIIIIIIIIIIIIIIIIIIIIIIII1AA1AA1AA1AA1AA1AA1AA2
IIIIIIIIIIIIIIIIIIIIIIIIIIIIIIIIIIIIIII1AI1AA1AA1AA1AA1AA1AA1AA2
IIIIIIIIIIIIIIIIIIIIIIIIIIIIIIIIIIIIIII1AA1AA1AA1AA1AA1AA1AA1AA2
IIIIIIIIIIIIIIIIIIIIIIIIIIIIIIIIIIII1AI1AA1AA1AA1AA1AA1AA1AA1AA2
IIIIIIIIIIIIIIIIIIIIIIIIIIIIIIIIIIII1AA1AA1AA1AA1AA1AA1AA1AA1AA2
IIIIIIIIIIIIIIIIIIIIIIIIIIIIIIIII1AI1AA1AA1AA1AA1AA1AA1AA1AA1AA2
IIIIIIIIIIIIIIIIIIIIIIIIIIIIIIIII1AA1AA1AA1AA1AA1AA1AA1AA1AA1AA2
IIIIIIIIIIIIIIIIIIIIIIIIIIIIII1AI1AA1AA1AA1AA1AA1AA1AA1AA1AA1AA2
IIIIIIIIIIIIIIIIIIIIIIIIIIIIII1AA1AA1AA1AA1AA1AA1AA1AA1AA1AA1AA2
IIIIIIIIIIIIIIIIIIIIIIIIIII1AI1AA1AA1AA1AA1AA1AA1AA1AA1AA1AA1AA2
IIIIIIIIIIIIIIIIIIIIIIIIIII1AA1AA1AA1AA1AA1AA1AA1AA1AA1AA1AA1AA2
IIIIIIIIIIIIIIIIIIIIIIII1AI1AA1AA1AA1AA1AA1AA1AA1AA1AA1AA1AA1AA2
IIIIIIIIIIIIIIIIIIIIIIII1AA1AA1AA1AA1AA1AA1AA1AA1AA1AA1AA1AA1AA2
IIIIIIIIIIIIIIIIIIIII1AI1AA1AA1AA1AA1AA1AA1AA1AA1AA1AA1AA1AA1AA2
IIIIIIIIIIIIIIIIIIIII1AA1AA1AA1AA1AA1AA1AA1AA1AA1AA1AA1AA1AA1AA2
IIIIIIIIIIIIIIIIII1AI1AA1AA1AA1AA1AA1AA1AA1AA1AA1AA1AA1AA1AA1AA2
IIIIIIIIIIIIIIIIII1AA1AA1AA1AA1AA1AA1AA1AA1AA1AA1AA1AA1AA1AA1AA2
IIIIIIIIIIIIIII1AI1AA1AA1AA1AA1AA1AA1AA1AA1AA1AA1AA1AA1AA1AA1AA2
IIIIIIIIIIIIIII1AA1AA1AA1AA1AA1AA1AA1AA1AA1AA1AA1AA1AA1AA1AA1AA2
IIIIIIIIIIII1AI1AA1AA1AA1AA1AA1AA1AA1AA1AA1AA1AA1AA1AA1AA1AA1AA2
IIIIIIIIIIII1AA1AA1AA1AA1AA1AA1AA1AA1AA1AA1AA1AA1AA1AA1AA1AA1AA2
IIIIIIIII1AI1AA1AA1AA1AA1AA1AA1AA1AA1AA1AA1AA1AA1AA1AA1AA1AA1AA2
IIIIIIIII1AA1AA1AA1AA1AA1AA1AA1AA1AA1AA1AA1AA1AA1AA1AA1AA1AA1AA2
IIIIII1AI1AA1AA1AA1AA1AA1AA1AA1AA1AA1AA1AA1AA1AA1AA1AA1AA1AA1AA2
IIIIII1AA1AA1AA1AA1AA1AA1AA1AA1AA1AA1AA1AA1AA1AA1AA1AA1AA1AA1AA2
III1AI1AA1AA1AA1AA1AA1AA1AA1AA1AA1AA1AA1AA1AA1AA1AA1AA1AA1AA1AA2
III1AA1AA1AA1AA1AA1AA1AA1AA1AA1AA1AA1AA1AA1AA1AA1AA1AA1AA1AA1AA2
1AI1AA1AA1AA1AA1AA1AA1AA1AA1AA1AA1AA1AA1AA1AA1AA1AA1AA1AA1AA1AA2
1AA1AA1AA1AA1AA1AA1AA1AA1AA1AA1AA1AA1AA1AA1AA1AA1AA1AA1AA1AA1AA2
IIIIIIIIIIIIIIIIIIIIIIIIIIIIIIIIIIIIIIIIIIIIIIIIIIIIIII2II2I1AII
IIIIIIIIIIIIIIIIIIIIIIIIIIIIIIIIIIIIIIIIIIIIIIIIIIIIIII22I221AAI
IIIIIIIIIIIIIIIIIIIIIIIIIIIIIIIIIIIIIIIIIIIIIIIIIIII2II221A21AAI
IIIIIIIIIIIIIIIIIIIIIIIIIIIIIIIIIIIIIIIIIIIIIIIIIIII22I221AA1AAI
IIIIIIIIIIIIIIIIIIIIIIIIIIIIIIIIIIIIIIIIIIIIIIIII2II221A21AA1AAI
IIIIIIIIIIIIIIIIIIIIIIIIIIIIIIIIIIIIIIIIIIIIII2II2I1A21A21AA1AAI
IIIIIIIIIIIIIIIIIIIIIIIIIIIIIIIIIIIIIIIIIIIIII2II221A21AA1AA1AAI
IIIIIIIIIIIIIIIIIIIIIIIIIIIIIIIIIIIIIIIIIIIIII22I221AA1AA1AA1AAI
IIIIIIIIIIIIIIIIIIIIIIIIIIIIIIIIIIIIIIIIIII2II221A21AA1AA1AA1AAI
IIIIIIIIIIIIIIIIIIIIIIIIIIIIIIIIIIIIIIIIIII22I221AA1AA1AA1AA1AAI
IIIIIIIIIIIIIIIIIIIIIIIIIIIIIIIIIIIIIIII2II221A21AA1AA1AA1AA1AAI
IIIIIIIIIIIIIIIIIIIIIIIIIIIIIIIIIIIIIIII22I221AA1AA1AA1AA1AA1AAI
IIIIIIIIIIIIIIIIIIIIIIIIIIIIIIIIIIIII2II221A21AA1AA1AA1AA1AA1AAI
IIIIIIIIIIIIIIIIIIIIIIIIIIIIIIIIIIIII22I221AA1AA1AA1AA1AA1AA1AAI
IIIIIIIIIIIIIIIIIIIIIIIIIIIIIIIIII2II221A21AA1AA1AA1AA1AA1AA1AAI
IIIIIIIIIIIIIIIIIIIIIIIIIIIIIII2II2I1A21A21AA1AA1AA1AA1AA1AA1AAI
IIIIIIIIIIIIIIIIIIIIIIIIIIIIIII2II221A21AA1AA1AA1AA1AA1AA1AA1AAI
IIIIIIIIIIIIIIIIIIIIIIIIIIIIIII22I221AA1AA1AA1AA1AA1AA1AA1AA1AAI
IIIIIIIIIIIIIIIIIIIIIIIIIIII2II221A21AA1AA1AA1AA1AA1AA1AA1AA1AAI
IIIIIIIIIIIIIIIIIIIIIIIIIIII22I221AA1AA1AA1AA1AA1AA1AA1AA1AA1AAI
IIIIIIIIIIIIIIIIIIIIIIIII2II221A21AA1AA1AA1AA1AA1AA1AA1AA1AA1AAI
IIIIIIIIIIIIIIIIIIIIIIIII22I221AA1AA1AA1AA1AA1AA1AA1AA1AA1AA1AAI
IIIIIIIIIIIIIIIIIIIIII2II221A21AA1AA1AA1AA1AA1AA1AA1AA1AA1AA1AAI
IIIIIIIIIIIIIIIIIIIIII22I221AA1AA1AA1AA1AA1AA1AA1AA1AA1AA1AA1AAI
IIIIIIIIIIIIIIIIIII2II221A21AA1AA1AA1AA1AA1AA1AA1AA1AA1AA1AA1AAI
IIIIIIIIIIIIIIIIIII22I221AA1AA1AA1AA1AA1AA1AA1AA1AA1AA1AA1AA1AAI
IIIIIIIIIIIIIIII2II221A21AA1AA1AA1AA1AA1AA1AA1AA1AA1AA1AA1AA1AAI
IIIIIIIIIIIIIIII22I221AA1AA1AA1AA1AA1AA1AA1AA1AA1AA1AA1AA1AA1AAI
IIIIIIIIIIIII2II221A21AA1AA1AA1AA1AA1AA1AA1AA1AA1AA1AA1AA1AA1AAI
IIIIIIIIIIIII22I221AA1AA1AA1AA1AA1AA1AA1AA1AA1AA1AA1AA1AA1AA1AAI
IIIIIIIIII2II221A21AA1AA1AA1AA1AA1AA1AA1AA1AA1AA1AA1AA1AA1AA1AAI
IIIIIIIIII22I221AA1AA1AA1AA1AA1AA1AA1AA1AA1AA1AA1AA1AA1AA1AA1AAI
IIIIIII2II221A21AA1AA1AA1AA1AA1AA1AA1AA1AA1AA1AA1AA1AA1AA1AA1AAI
IIIIIII22I221AA1AA1AA1AA1AA1AA1AA1AA1AA1AA1AA1AA1AA1AA1AA1AA1AAI
IIII2II221A21AA1AA1AA1AA1AA1AA1AA1AA1AA1AA1AA1AA1AA1AA1AA1AA1AAI
IIII22I221AA1AA1AA1AA1AA1AA1AA1AA1AA1AA1AA1AA1AA1AA1AA1AA1AA1AAI
I2II221A21AA1AA1AA1AA1AA1AA1AA1AA1AA1AA1AA1AA1AA1AA1AA1AA1AA1AAI
I22I221AA1AA1AA1AA1AA1AA1AA1AA1AA1AA1AA1AA1AA1AA1AA1AA1AA1AA1AAI
I221A21AA1AA1AA1AA1AA1AA1AA1AA1AA1AA1AA1AA1AA1AA1AA1AA1AA1AA1AAI
I221AA1AA1AA1AA1AA1AA1AA1AA1AA1AA1AA1AA1AA1AA1AA1AA1AA1AA1AA1AAI
1A21AA1AA1AA1AA1AA1AA1AA1AA1AA1AA1AA1AA1AA1AA1AA1AA1AA1AA1AA1AAI
1AA1AA1AA1AA1AA1AA1AA1AA1AA1AA1AA1AA1AA1AA1AA1AA1AA1AA1AA1AA1AAI
IIIIIIIIIIIIIIIIIIIIIIIIIIIIIIIIIIIII2II1II1II1II1II1II1II1IIAII
IIIIIIIIIIIIIIIIIIIIIIIIIIIIIIIIIIIII2II1II1II11I11I11I11I11IAAI
IIIIIIIIIIIIIIIIIIIIIIIIIIIIIIIIII2II1II1II1II11I11I11I11IA1IAAI
IIIIIIIIIIIIIIIIIIIIIIIIIIIIIIIIII2II1II1II11I11I11I11I11IAAIAAI
IIIIIIIIIIIIIIIIIIIIIIIIIIIIIII2II1II1II1II11I11I11I11IA1IAAIAAI
IIIIIIIIIIIIIIIIIIIIIIIIIIIIIII2II1II1II11I11I11I11I11IAAIAAIAAI
IIIIIIIIIIIIIIIIIIIIIIIIIIII2II1II1II1II11I11I11I11IA1IAAIAAIAAI
IIIIIIIIIIIIIIIIIIIIIIIIIIII2II1II1II11I11I11I11I11IAAIAAIAAIAAI
IIIIIIIIIIIIIIIIIIIIIIIIIIII2II1II1II11I11I11I11IA1IAAIAAIAAIAAI
IIIIIIIIIIIIIIIIIIIIIIIIIIII2II1II11I11I11I11I11IAAIAAIAAIAAIAAI
IIIIIIIIIIIIIIIIIIIIIIIIIIII2II1II11I11I11I11IA1IAAIAAIAAIAAIAAI
IIIIIIIIIIIIIIIIIIIIIIIIIIII2II1II11I11I11I11IAAIAAIAAIAAIAAIAAI
IIIIIIIIIIIIIIIIIIIIIIIIIIII2II1II11I11I11IA1IAAIAAIAAIAAIAAIAAI
IIIIIIIIIIIIIIIIIIIIIIIIIIII2II1II11I11I11IAAIAAIAAIAAIAAIAAIAAI
IIIIIIIIIIIIIIIIIIIIIIIIIIII2II1II11I11IA1IAAIAAIAAIAAIAAIAAIAAI
IIIIIIIIIIIIIIIIIIIIIIIIIIII2II1II11I11IAAIAAIAAIAAIAAIAAIAAIAAI
IIIIIIIIIIIIIIIIIIIIIIIIIIII2II1II11IA1IAAIAAIAAIAAIAAIAAIAAIAAI
IIIIIIIIIIIIIIIIIIIIIIIIIIII2II1II11IAAIAAIAAIAAIAAIAAIAAIAAIAAI
IIIIIIIIIIIIIIIIIIIIIIIIIIII2II1IIA1IAAIAAIAAIAAIAAIAAIAAIAAIAAI
IIIIIIIIIIIIIIIIIIIIIIIIIIII21I11IAAIAAIAAIAAIAAIAAIAAIAAIAAIAAI
IIIIIIIIIIIIIIIIIIIIII1II1II11IA1IAAIAAIAAIAAIAAIAAIAAIAAIAAIAAI
IIIIIIIIIIIIIIIIIIIIII1II1II11IAAIAAIAAIAAIAAIAAIAAIAAIAAIAAIAAI
IIIIIIIIIIIIIIIIIIIIII1II1IIA1IAAIAAIAAIAAIAAIAAIAAIAAIAAIAAIAAI
IIIIIIIIIIIIIIIIIIIIII1II1IIAAIAAIAAIAAIAAIAAIAAIAAIAAIAAIAAIAAI
IIIIIIIIIIIIIIIIIIIIII1IIAIIAAIAAIAAIAAIAAIAAIAAIAAIAAIAAIAAIAAI
IIIIIIII1II1II1II1II1I11IAAIAAIAAIAAIAAIAAIAAIAAIAAIAAIAAIAAIAAI
IIIIIIII1II1II1I11I11IA1IAAIAAIAAIAAIAAIAAIAAIAAIAAIAAIAAIAAIAAI
IIIIIIII1II1II1I11I11IAAIAAIAAIAAIAAIAAIAAIAAIAAIAAIAAIAAIAAIAAI
IIIIIIII1II1II1I11IA1IAAIAAIAAIAAIAAIAAIAAIAAIAAIAAIAAIAAIAAIAAI
II1II1II1II1II1I11IAAIAAIAAIAAIAAIAAIAAIAAIAAIAAIAAIAAIAAIAAIAAI
I11I11I11I11I11IA1IAAIAAIAAIAAIAAIAAIAAIAAIAAIAAIAAIAAIAAIAAIAAI
I11I11I11I11I11IAAIAAIAAIAAIAAIAAIAAIAAIAAIAAIAAIAAIAAIAAIAAIAAI
I11I11I11I11IA1IAAIAAIAAIAAIAAIAAIAAIAAIAAIAAIAAIAAIAAIAAIAAIAAI
I11I11I11I11IAAIAAIAAIAAIAAIAAIAAIAAIAAIAAIAAIAAIAAIAAIAAIAAIAAI
I11I11I11IA1IAAIAAIAAIAAIAAIAAIAAIAAIAAIAAIAAIAAIAAIAAIAAIAAIAAI
I11I11I11IAAIAAIAAIAAIAAIAAIAAIAAIAAIAAIAAIAAIAAIAAIAAIAAIAAIAAI
I11I11IA1IAAIAAIAAIAAIAAIAAIAAIAAIAAIAAIAAIAAIAAIAAIAAIAAIAAIAAI
I11I11IAAIAAIAAIAAIAAIAAIAAIAAIAAIAAIAAIAAIAAIAAIAAIAAIAAIAAIAAI
I11IA1IAAIAAIAAIAAIAAIAAIAAIAAIAAIAAIAAIAAIAAIAAIAAIAAIAAIAAIAAI
I11IAAIAAIAAIAAIAAIAAIAAIAAIAAIAAIAAIAAIAAIAAIAAIAAIAAIAAIAAIAAI
IA1IAAIAAIAAIAAIAAIAAIAAIAAIAAIAAIAAIAAIAAIAAIAAIAAIAAIAAIAAIAAI
IAAIAAIAAIAAIAAIAAIAAIAAIAAIAAIAAIAAIAAIAAIAAIAAIAAIAAIAAIAAIAAI
IIIIIIIIIIIIIIIIIIIIIIIIIIIIIIIIIIIII2II2II1II1II1II1II1II1IIAII
IIIIIIIIIIIIIIIIIIIIIIIIIIIIIIIIIIIII2II2II1II1II1II1II1II1IIAAI
IIIIIIIIIIIIIIIIIIIIIIIIIIIIIIIIIIIII2II1II1II1II1II1II1IIAIIAAI
IIIIIIIIIIIIIIIIIIIIIIIIIIIIIIIIIIIII2II1II1II1II1II1II1IIAAIAAI
IIIIIIIIIIIIIIIIIIIIIIIIIIIIIIIIIIIII1II1II1II1II1II1IIAIIAAIAAI
IIIIIIIIIIIIIIIIIIIIIIIIIIIIIIIIIIIII1II1II1II1II1II1IIAAIAAIAAI
IIIIIIIIIIIIIIIIIIIIIIIIIIIIIIIIII1II1II1II1II1II1IIAIIAAIAAIAAI
IIIIIIIIIIIIIIIIIIIIIIIIIIIIIIIIII1II1II1II1II1II1IIAAIAAIAAIAAI
IIIIIIIIIIIIIIIIIIIIIIIIIIIIIIIIII1II1II1II1II1IIAIIAAIAAIAAIAAI
IIIIIIIIIIIIIIIIIIIIIIIIIIIIIII1II1II1II1II1IIAIIAIIAAIAAIAAIAAI
IIIIIIIIIIIIIIIIIIIIIIIIIIIIIII1II1II1II1II1IIAAIAIIAAIAAIAAIAAI
IIIIIIIIIIIIIIIIIIIIIIIIIIIIIII1II1II1II1IIAIIAAIAIIAAIAAIAAIAAI
IIIIIIIIIIIIIIIIIIIIIIIIIIIIIII1II1II1II1IIAAIAAIAIIAAIAAIAAIAAI
IIIIIIIIIIIIIIIIIIIIIIIIIIIIIII1II1II1IIAIIAAIAAIAIIAAIAAIAAIAAI
IIIIIIIIIIIIIIIIIIIIIIIIIIIIIII1II1II1IIAAIAAIAAIAIIAAIAAIAAIAAI
IIIIIIIIIIIIIIIIIIIIIIIIIIIIIII1II1II1IIAAIAAIAAIAAIAAIAAIAAIAAI
IIIIIIIIIIIIIIIIIIIIIIIIIIII1II1II1IIAIIAAIAAIAAIAAIAAIAAIAAIAAI
IIIIIIIIIIIIIIIIIIIIIIIIIIII1II1II11IAAIAAIAAIAAIAAIAAIAAIAAIAAI
IIIIIIIIIIIIIIIIIIIIIIIIIIII1II1IIA1IAAIAAIAAIAAIAAIAAIAAIAAIAAI
IIIIIIIIIIIIIIIIIIIIIIIIIIII1II1IIAAIAAIAAIAAIAAIAAIAAIAAIAAIAAI
IIIIIIIIIIIIIIIIIIIIIIIIIIII1IIAIIAAIAAIAAIAAIAAIAAIAAIAAIAAIAAI
IIIIIIIIIIIIIIIIIIIIIIIIIIII1IIAAIAAIAAIAAIAAIAAIAAIAAIAAIAAIAAI
IIIIIIIIIIIIIIIIIIIIIIIIIIIIAIIAAIAAIAAIAAIAAIAAIAAIAAIAAIAAIAAI
IIIIIIIIIIIIIIIIIIII1II1II1IAAIAAIAAIAAIAAIAAIAAIAAIAAIAAIAAIAAI
IIIIIIIIIIIIIIIIIIII1II1IA1IAAIAAIAAIAAIAAIAAIAAIAAIAAIAAIAAIAAI
II2II2II1II1II1II1II1II1IAAIAAIAAIAAIAAIAAIAAIAAIAAIAAIAAIAAIAAI
II2II2II1II1II1II1II1IA1IAAIAAIAAIAAIAAIAAIAAIAAIAAIAAIAAIAAIAAI
II2II1II1II1II1II1II1IAAIAAIAAIAAIAAIAAIAAIAAIAAIAAIAAIAAIAAIAAI
I12I11I11I11I11I11IA1IAAIAAIAAIAAIAAIAAIAAIAAIAAIAAIAAIAAIAAIAAI
I11I11I11I11I11I11IAAIAAIAAIAAIAAIAAIAAIAAIAAIAAIAAIAAIAAIAAIAAI
I11I11I11I11I11IA1IAAIAAIAAIAAIAAIAAIAAIAAIAAIAAIAAIAAIAAIAAIAAI
I11I11I11I11I11IAAIAAIAAIAAIAAIAAIAAIAAIAAIAAIAAIAAIAAIAAIAAIAAI
I11I11I11I11IA1IAAIAAIAAIAAIAAIAAIAAIAAIAAIAAIAAIAAIAAIAAIAAIAAI
I11I11I11I11IAAIAAIAAIAAIAAIAAIAAIAAIAAIAAIAAIAAIAAIAAIAAIAAIAAI
I11I11I11IA1IAAIAAIAAIAAIAAIAAIAAIAAIAAIAAIAAIAAIAAIAAIAAIAAIAAI
I11I11I11IAAIAAIAAIAAIAAIAAIAAIAAIAAIAAIAAIAAIAAIAAIAAIAAIAAIAAI
I11I11IA1IAAIAAIAAIAAIAAIAAIAAIAAIAAIAAIAAIAAIAAIAAIAAIAAIAAIAAI
I11I11IAAIAAIAAIAAIAAIAAIAAIAAIAAIAAIAAIAAIAAIAAIAAIAAIAAIAAIAAI
I11IA1IAAIAAIAAIAAIAAIAAIAAIAAIAAIAAIAAIAAIAAIAAIAAIAAIAAIAAIAAI
I11IAAIAAIAAIAAIAAIAAIAAIAAIAAIAAIAAIAAIAAIAAIAAIAAIAAIAAIAAIAAI
IA1IAAIAAIAAIAAIAAIAAIAAIAAIAAIAAIAAIAAIAAIAAIAAIAAIAAIAAIAAIAAI
IAAIAAIAAIAAIAAIAAIAAIAAIAAIAAIAAIAAIAAIAAIAAIAAIAAIAAIAAIAAIAAI
IIIIIIIIIIIIIIIIIIIIIIIIIIIIIIIIIIIII1II1II1II1II1II1II1II1IIAII
IIIIIIIIIIIIIIIIIIIIIIIIIIIIIIIIIIIII11I11I11I11I11I11I11I11IAAI
IIIIIIIIIIIIIIIIIIIIIIIIIIIIIIIIII1II11I11I11I11I11I11I11IA1IAAI
IIIIIIIIIIIIIIIIIIIIIIIIIIIIIIIIII11I11I11I11I11I11I11I11IAAIAAI
IIIIIIIIIIIIIIIIIIIIIIIIIIIIIII1II11I11I11I11I11I11I11IA1IAAIAAI
IIIIIIIIIIIIIIIIIIIIIIIIIIIIIII11I11I11I11I11I11I11I11IAAIAAIAAI
IIIIIIIIIIIIIIIIIIIIIIIIIIII1II11I11I11I11I11I11I11IA1IAAIAAIAAI
IIIIIIIIIIIIIIIIIIIIIIIIIIII11I11I11I11I11I11I11I11IAAIAAIAAIAAI
IIIIIIIIIIIIIIIIIIIIIIIII1II11I11I11I11I11I11I11IA1IAAIAAIAAIAAI
IIIIIIIIIIIIIIIIIIIIIIIII11I11I11I11I11I11I11I11IAAIAAIAAIAAIAAI
IIIIIIIIIIIIIIIIIIIIII1II11I11I11I11I11I11I11IA1IAAIAAIAAIAAIAAI
IIIIIIIIIIIIIIIIIIIIII11I11I11I11I11I11I11I11IAAIAAIAAIAAIAAIAAI
IIIIIIIIIIIIIIIIIII1II11I11I11I11I11I11I11IA1IAAIAAIAAIAAIAAIAAI
IIIIIIIIIIIIIIIIIII11I11I11I11I11I11I11I11IAAIAAIAAIAAIAAIAAIAAI
IIIIIIIIIIIIIIII1II11I11I11I11I11I11I11IA1IAAIAAIAAIAAIAAIAAIAAI
IIIIIIIIIIIIIIII11I11I11I11I11I11I11I11IAAIAAIAAIAAIAAIAAIAAIAAI
IIIIIIIIIIIII1II11I11I11I11I11I11I11IA1IAAIAAIAAIAAIAAIAAIAAIAAI
IIIIIIIIIIIII11I11I11I11I11I11I11I11IAAIAAIAAIAAIAAIAAIAAIAAIAAI
IIIIIIIIII1II11I11I11I11I11I11I11IA1IAAIAAIAAIAAIAAIAAIAAIAAIAAI
IIIIIIIIII11I11I11I11I11I11I11I11IAAIAAIAAIAAIAAIAAIAAIAAIAAIAAI
IIIIIII1II11I11I11I11I11I11I11IA1IAAIAAIAAIAAIAAIAAIAAIAAIAAIAAI
IIIIIII11I11I11I11I11I11I11I11IAAIAAIAAIAAIAAIAAIAAIAAIAAIAAIAAI
IIII1II11I11I11I11I11I11I11IA1IAAIAAIAAIAAIAAIAAIAAIAAIAAIAAIAAI
IIII11I11I11I11I11I11I11I11IAAIAAIAAIAAIAAIAAIAAIAAIAAIAAIAAIAAI
I1II11I11I11I11I11I11I11IA1IAAIAAIAAIAAIAAIAAIAAIAAIAAIAAIAAIAAI
I11I11I11I11I11I11I11I11IAAIAAIAAIAAIAAIAAIAAIAAIAAIAAIAAIAAIAAI
I11I11I11I11I11I11I11IA1IAAIAAIAAIAAIAAIAAIAAIAAIAAIAAIAAIAAIAAI
I11I11I11I11I11I11I11IAAIAAIAAIAAIAAIAAIAAIAAIAAIAAIAAIAAIAAIAAI
I11I11I11I11I11I11IA1IAAIAAIAAIAAIAAIAAIAAIAAIAAIAAIAAIAAIAAIAAI
I11I11I11I11I11I11IAAIAAIAAIAAIAAIAAIAAIAAIAAIAAIAAIAAIAAIAAIAAI
I11I11I11I11I11IA1IAAIAAIAAIAAIAAIAAIAAIAAIAAIAAIAAIAAIAAIAAIAAI
I11I11I11I11I11IAAIAAIAAIAAIAAIAAIAAIAAIAAIAAIAAIAAIAAIAAIAAIAAI
I11I11I11I11IA1IAAIAAIAAIAAIAAIAAIAAIAAIAAIAAIAAIAAIAAIAAIAAIAAI
I11I11I11I11IAAIAAIAAIAAIAAIAAIAAIAAIAAIAAIAAIAAIAAIAAIAAIAAIAAI
I11I11I11IA1IAAIAAIAAIAAIAAIAAIAAIAAIAAIAAIAAIAAIAAIAAIAAIAAIAAI
I11I11I11IAAIAAIAAIAAIAAIAAIAAIAAIAAIAAIAAIAAIAAIAAIAAIAAIAAIAAI
I11I11IA1IAAIAAIAAIAAIAAIAAIAAIAAIAAIAAIAAIAAIAAIAAIAAIAAIAAIAAI
I11I11IAAIAAIAAIAAIAAIAAIAAIAAIAAIAAIAAIAAIAAIAAIAAIAAIAAIAAIAAI
I11IA1IAAIAAIAAIAAIAAIAAIAAIAAIAAIAAIAAIAAIAAIAAIAAIAAIAAIAAIAAI
I11IAAIAAIAAIAAIAAIAAIAAIAAIAAIAAIAAIAAIAAIAAIAAIAAIAAIAAIAAIAAI
IA1IAAIAAIAAIAAIAAIAAIAAIAAIAAIAAIAAIAAIAAIAAIAAIAAIAAIAAIAAIAAI
IAAIAAIAAIAAIAAIAAIAAIAAIAAIAAIAAIAAIAAIAAIAAIAAIAAIAAIAAIAAIAAI
IIIIIIIIIIIIIIIIIIIIIIIIIIIIIIIIIIIIIIIIIIIIIIIIIIIIIIIIII1IIAII
IIIIIIIIIIIIIIIIIIIIIIIIIIIIIIIIIIIIII1II1II1II1II1II1II1I11IAAI
IIIIIIIIIIIIIIIIIIIIIIIIIIIIIIIIIIIIII1II1I11I11I11I11I11IA1IAAI
IIIIIIIIIIIIIIIIIIIIIIIIIIIIIIIIIIIIII1II1I11I11I11I11I11IAAIAAI
IIIIIIIIIIIIIIIIIIIIIIIIIIIIIIIIIIIIII1II1I11I11I11I11IA1IAAIAAI
IIIIIIIIIIIIIIIIIIIIIIIIIIIIIIII1II1II1II1I11I11I11I11IAAIAAIAAI
IIIIIIIIIIIIIIIIIIIIIIIIIIIIIIII1II1I11I11I11I11I11IA1IAAIAAIAAI
IIIIIIIIIIIIIIIIIIIIIIIIIIIII1II1II1I11I11I11I11I11IAAIAAIAAIAAI
IIIIIIIIIIIIIIIIIIIIIIIII1II11I11I11I11I11I11I11IA1IAAIAAIAAIAAI
IIIIIIIIIIIIIIIIIIIIIIIII1II11I11I11I11I11I11I11IAAIAAIAAIAAIAAI
IIIIIIIIIIIIIIIIIIIIIIIII1II11I11I11I11I11I11IA1IAAIAAIAAIAAIAAI
IIIIIIIIIIIIIIIIIIIIIIIII1II11I11I11I11I11I11IAAIAAIAAIAAIAAIAAI
IIIIIIIIIIIIIIIIIIIIIIIII1II11I11I11I11I11IA1IAAIAAIAAIAAIAAIAAI
IIIIIIIIIIIIIIIIIIIIIIIII1II11I11I11I11I11IAAIAAIAAIAAIAAIAAIAAI
IIIIIIIIIIIIIIIIIIIIIIIII1II11I11I11I11IA1IAAIAAIAAIAAIAAIAAIAAI
IIIIIIIIIIIIIIIIIIII1II1I11I11I11I11I11IAAIAAIAAIAAIAAIAAIAAIAAI
IIIIIIIIIIIIIIIIIIII1II1I11I11I11I11IA1IAAIAAIAAIAAIAAIAAIAAIAAI
IIIIIIIIIIIIIIIII1II1II1I11I11I11I11IAAIAAIAAIAAIAAIAAIAAIAAIAAI
IIIIIIIIIIIIIIIII1II1I11I11I11I11IA1IAAIAAIAAIAAIAAIAAIAAIAAIAAI
IIIIIIIIIIIIIIIII1II1I11I11I11I11IAAIAAIAAIAAIAAIAAIAAIAAIAAIAAI
IIIIIIIIIIIIIIII11I11I11I11I11IA1IAAIAAIAAIAAIAAIAAIAAIAAIAAIAAI
IIIIIIIIIIIIIIII11I11I11I11I11IAAIAAIAAIAAIAAIAAIAAIAAIAAIAAIAAI
IIIIIIIIIIIIIIII11I11I11I11IA1IAAIAAIAAIAAIAAIAAIAAIAAIAAIAAIAAI
IIIIIIIIIIIIIIII11I11I11I11IAAIAAIAAIAAIAAIAAIAAIAAIAAIAAIAAIAAI
IIIIIIIIIIIIIIII11I11I11IA1IAAIAAIAAIAAIAAIAAIAAIAAIAAIAAIAAIAAI
IIIIIIIIIIIIIIII11I11I11IAAIAAIAAIAAIAAIAAIAAIAAIAAIAAIAAIAAIAAI
IIIIIIIIIIIIIIII11I11IA1IAAIAAIAAIAAIAAIAAIAAIAAIAAIAAIAAIAAIAAI
II1II1II1II1II1I11I11IAAIAAIAAIAAIAAIAAIAAIAAIAAIAAIAAIAAIAAIAAI
I11I11I11I11I11I11IA1IAAIAAIAAIAAIAAIAAIAAIAAIAAIAAIAAIAAIAAIAAI
I11I11I11I11I11I11IAAIAAIAAIAAIAAIAAIAAIAAIAAIAAIAAIAAIAAIAAIAAI
I11I11I11I11I11IA1IAAIAAIAAIAAIAAIAAIAAIAAIAAIAAIAAIAAIAAIAAIAAI
I11I11I11I11I11IAAIAAIAAIAAIAAIAAIAAIAAIAAIAAIAAIAAIAAIAAIAAIAAI
I11I11I11I11IA1IAAIAAIAAIAAIAAIAAIAAIAAIAAIAAIAAIAAIAAIAAIAAIAAI
I11I11I11I11IAAIAAIAAIAAIAAIAAIAAIAAIAAIAAIAAIAAIAAIAAIAAIAAIAAI
I11I11I11IA1IAAIAAIAAIAAIAAIAAIAAIAAIAAIAAIAAIAAIAAIAAIAAIAAIAAI
I11I11I11IAAIAAIAAIAAIAAIAAIAAIAAIAAIAAIAAIAAIAAIAAIAAIAAIAAIAAI
I11I11IA1IAAIAAIAAIAAIAAIAAIAAIAAIAAIAAIAAIAAIAAIAAIAAIAAIAAIAAI
I11I11IAAIAAIAAIAAIAAIAAIAAIAAIAAIAAIAAIAAIAAIAAIAAIAAIAAIAAIAAI
I11IA1IAAIAAIAAIAAIAAIAAIAAIAAIAAIAAIAAIAAIAAIAAIAAIAAIAAIAAIAAI
I11IAAIAAIAAIAAIAAIAAIAAIAAIAAIAAIAAIAAIAAIAAIAAIAAIAAIAAIAAIAAI
IA1IAAIAAIAAIAAIAAIAAIAAIAAIAAIAAIAAIAAIAAIAAIAAIAAIAAIAAIAAIAAI
IAAIAAIAAIAAIAAIAAIAAIAAIAAIAAIAAIAAIAAIAAIAAIAAIAAIAAIAAIAAIAAI
IIIIIIIIIIIIIIIIIIIIIIIIIIIIIIIIIIIII1II1II1II1II1II1II1II1IIAII
IIIIIIIIIIIIIIIIIIIIIIIIIIIIIIIIIIIII11I11I11I11I11I11I11I11IAAI
IIIIIIIIIIIIIIIIIIIIIIIIIIIIIIIIII1II11I11I11I11I11I11I11IA1IAAI
IIIIIIIIIIIIIIIIIIIIIIIIIIIIIIIIII11I11I11I11I11I11I11I11IAAIAAI
IIIIIIIIIIIIIIIIIIIIIIIIIIIIIII1II11I11I11I11I11I11I11IA1IAAIAAI
IIIIIIIIIIIIIIIIIIIIIIIIIIIIIII11I11I11I11I11I11I11I11IAAIAAIAAI
IIIIIIIIIIIIIIIIIIIIIIIIIIII1II11I11I11I11I11I11I11IA1IAAIAAIAAI
IIIIIIIIIIIIIIIIIIIIIIIIIIII11I11I11I11I11I11I11I11IAAIAAIAAIAAI
IIIIIIIIIIIIIIIIIIIIIIIII1II11I11I11I11I11I11I11IA1IAAIAAIAAIAAI
IIIIIIIIIIIIIIIIIIIIIIIII11I11I11I11I11I11I11I11IAAIAAIAAIAAIAAI
IIIIIIIIIIIIIIIIIIIIII1II11I11I11I11I11I11I11IA1IAAIAAIAAIAAIAAI
IIIIIIIIIIIIIIIIIIIIII11I11I11I11I11I11I11I11IAAIAAIAAIAAIAAIAAI
IIIIIIIIIIIIIIIIIII1II11I11I11I11I11I11I11IA1IAAIAAIAAIAAIAAIAAI
IIIIIIIIIIIIIIIIIII11I11I11I11I11I11I11I11IAAIAAIAAIAAIAAIAAIAAI
IIIIIIIIIIIIIIII1II11I11I11I11I11I11I11IA1IAAIAAIAAIAAIAAIAAIAAI
IIIIIIIIIIIIIIII11I11I11I11I11I11I11I11IAAIAAIAAIAAIAAIAAIAAIAAI
IIIIIIIIIIIII1II11I11I11I11I11I11I11IA1IAAIAAIAAIAAIAAIAAIAAIAAI
IIIIIIIIIIIII11I11I11I11I11I11I11I11IAAIAAIAAIAAIAAIAAIAAIAAIAAI
IIIIIIIIII1II11I11I11I11I11I11I11IA1IAAIAAIAAIAAIAAIAAIAAIAAIAAI
IIIIIIIIII11I11I11I11I11I11I11I11IAAIAAIAAIAAIAAIAAIAAIAAIAAIAAI
IIIIIII1II11I11I11I11I11I11I11IA1IAAIAAIAAIAAIAAIAAIAAIAAIAAIAAI
IIIIIII11I11I11I11I11I11I11I11IAAIAAIAAIAAIAAIAAIAAIAAIAAIAAIAAI
IIII1II11I11I11I11I11I11I11IA1IAAIAAIAAIAAIAAIAAIAAIAAIAAIAAIAAI
IIII11I11I11I11I11I11I11I11IAAIAAIAAIAAIAAIAAIAAIAAIAAIAAIAAIAAI
I1II11I11I11I11I11I11I11IA1IAAIAAIAAIAAIAAIAAIAAIAAIAAIAAIAAIAAI
I11I11I11I11I11I11I11I11IAAIAAIAAIAAIAAIAAIAAIAAIAAIAAIAAIAAIAAI
I11I11I11I11I11I11I11IA1IAAIAAIAAIAAIAAIAAIAAIAAIAAIAAIAAIAAIAAI
I11I11I11I11I11I11I11IAAIAAIAAIAAIAAIAAIAAIAAIAAIAAIAAIAAIAAIAAI
I11I11I11I11I11I11IA1IAAIAAIAAIAAIAAIAAIAAIAAIAAIAAIAAIAAIAAIAAI
I11I11I11I11I11I11IAAIAAIAAIAAIAAIAAIAAIAAIAAIAAIAAIAAIAAIAAIAAI
I11I11I11I11I11IA1IAAIAAIAAIAAIAAIAAIAAIAAIAAIAAIAAIAAIAAIAAIAAI
I11I11I11I11I11IAAIAAIAAIAAIAAIAAIAAIAAIAAIAAIAAIAAIAAIAAIAAIAAI
I11I11I11I11IA1IAAIAAIAAIAAIAAIAAIAAIAAIAAIAAIAAIAAIAAIAAIAAIAAI
I11I11I11I11IAAIAAIAAIAAIAAIAAIAAIAAIAAIAAIAAIAAIAAIAAIAAIAAIAAI
I11I11I11IA1IAAIAAIAAIAAIAAIAAIAAIAAIAAIAAIAAIAAIAAIAAIAAIAAIAAI
I11I11I11IAAIAAIAAIAAIAAIAAIAAIAAIAAIAAIAAIAAIAAIAAIAAIAAIAAIAAI
I11I11IA1IAAIAAIAAIAAIAAIAAIAAIAAIAAIAAIAAIAAIAAIAAIAAIAAIAAIAAI
I11I11IAAIAAIAAIAAIAAIAAIAAIAAIAAIAAIAAIAAIAAIAAIAAIAAIAAIAAIAAI
I11IA1IAAIAAIAAIAAIAAIAAIAAIAAIAAIAAIAAIAAIAAIAAIAAIAAIAAIAAIAAI
I11IAAIAAIAAIAAIAAIAAIAAIAAIAAIAAIAAIAAIAAIAAIAAIAAIAAIAAIAAIAAI
IA1IAAIAAIAAIAAIAAIAAIAAIAAIAAIAAIAAIAAIAAIAAIAAIAAIAAIAAIAAIAAI
IAAIAAIAAIAAIAAIAAIAAIAAIAAIAAIAAIAAIAAIAAIAAIAAIAAIAAIAAIAAIAAI
IIIIIIIIIIIIIIIIIIIIIIIIIIIIIIIIIIIIIIIIIIIIIIIIIIIIIIIIIII21AII
IIIIIIIIIIIIIIIIIIIIIIIIIIIIIIIIIIIIIIIIIIIIIIIIIIIIIIIIIII21AAI
IIIIIIIIIIIIIIIIIIIIIIIIIIIIIIIIIIIIIIIIIIIIIIIIIIIIIIII21A21AAI
IIIIIIIIIIIIIIIIIIIIIIIIIIIIIIIIIIIIIIIIIIIIIIIIIIIIIIII21AA1AAI
IIIIIIIIIIIIIIIIIIIIIIIIIIIIIIIIIIIIIIIIIIIIIIIIIIIII21A21AA1AAI
IIIIIIIIIIIIIIIIIIIIIIIIIIIIIIIIIIIIIIIIIIIIIIIIIIIII21AA1AA1AAI
IIIIIIIIIIIIIIIIIIIIIIIIIIIIIIIIIIIIIIIIIIIIIIIIII21A21AA1AA1AAI
IIIIIIIIIIIIIIIIIIIIIIIIIIIIIIIIIIIIIIIIIIIIIIIIII21AA1AA1AA1AAI
IIIIIIIIIIIIIIIIIIIIIIIIIIIIIIIIIIIIIIIIIIIIIII21A21AA1AA1AA1AAI
IIIIIIIIIIIIIIIIIIIIIIIIIIIIIIIIIIIIIIIIIIIIIII21AA1AA1AA1AA1AAI
IIIIIIIIIIIIIIIIIIIIIIIIIIIIIIIIIIIIIIIIIIII21A21AA1AA1AA1AA1AAI
IIIIIIIIIIIIIIIIIIIIIIIIIIIIIIIIIIIIIIIIIIII21AA1AA1AA1AA1AA1AAI
IIIIIIIIIIIIIIIIIIIIIIIIIIIIIIIIIIIIIIIII21A21AA1AA1AA1AA1AA1AAI
IIIIIIIIIIIIIIIIIIIIIIIIIIIIIIIIIIIIIIIII21AA1AA1AA1AA1AA1AA1AAI
IIIIIIIIIIIIIIIIIIIIIIIIIIIIIIIIIIIIII21A21AA1AA1AA1AA1AA1AA1AAI
IIIIIIIIIIIIIIIIIIIIIIIIIIIIIIIIIIIIII21AA1AA1AA1AA1AA1AA1AA1AAI
IIIIIIIIIIIIIIIIIIIIIIIIIIIIIIIIIII21A21AA1AA1AA1AA1AA1AA1AA1AAI
IIIIIIIIIIIIIIIIIIIIIIIIIIIIIIIIIII21AA1AA1AA1AA1AA1AA1AA1AA1AAI
IIIIIIIIIIIIIIIIIIIIIIIIIIIIIIII21A21AA1AA1AA1AA1AA1AA1AA1AA1AAI
IIIIIIIIIIIIIIIIIIIIIIIIIIIIIIII21AA1AA1AA1AA1AA1AA1AA1AA1AA1AAI
IIIIIIIIIIIIIIIIIIIIIIIIIIIIII1A21AA1AA1AA1AA1AA1AA1AA1AA1AA1AAI
IIIIIIIIIIIIIIIIIIIIIIIIIIIIII1AA1AA1AA1AA1AA1AA1AA1AA1AA1AA1AAI
IIIIIIIIIIIIIIIIIIIIIIIIIII1AI1AA1AA1AA1AA1AA1AA1AA1AA1AA1AA1AAI
IIIIIIIIIIIIIIIIIIIIIIIIIII1AA1AA1AA1AA1AA1AA1AA1AA1AA1AA1AA1AAI
IIIIIIIIIIIIIIIIIIIIIIII1AI1AA1AA1AA1AA1AA1AA1AA1AA1AA1AA1AA1AAI
IIIIIIIIIIIIIIIIIIIIIIII1AA1AA1AA1AA1AA1AA1AA1AA1AA1AA1AA1AA1AAI
IIIIIIIIIIIIIIIIIIIII1AI1AA1AA1AA1AA1AA1AA1AA1AA1AA1AA1AA1AA1AAI
IIIIIIIIIIIIIIIIIIIII1AA1AA1AA1AA1AA1AA1AA1AA1AA1AA1AA1AA1AA1AAI
IIIIIIIIIIIIIIIIII1AI1AA1AA1AA1AA1AA1AA1AA1AA1AA1AA1AA1AA1AA1AAI
IIIIIIIIIIIIIIIIII1AA1AA1AA1AA1AA1AA1AA1AA1AA1AA1AA1AA1AA1AA1AAI
IIIIIIIIIIIIIII1AI1AA1AA1AA1AA1AA1AA1AA1AA1AA1AA1AA1AA1AA1AA1AAI
IIIIIIIIIIIIIII1AA1AA1AA1AA1AA1AA1AA1AA1AA1AA1AA1AA1AA1AA1AA1AAI
IIIIIIIIIIII1AI1AA1AA1AA1AA1AA1AA1AA1AA1AA1AA1AA1AA1AA1AA1AA1AAI
IIIIIIIIIIII1AA1AA1AA1AA1AA1AA1AA1AA1AA1AA1AA1AA1AA1AA1AA1AA1AAI
IIIIIIIII1AI1AA1AA1AA1AA1AA1AA1AA1AA1AA1AA1AA1AA1AA1AA1AA1AA1AAI
IIIIIIIII1AA1AA1AA1AA1AA1AA1AA1AA1AA1AA1AA1AA1AA1AA1AA1AA1AA1AAI
IIIIII1AI1AA1AA1AA1AA1AA1AA1AA1AA1AA1AA1AA1AA1AA1AA1AA1AA1AA1AAI
IIIIII1AA1AA1AA1AA1AA1AA1AA1AA1AA1AA1AA1AA1AA1AA1AA1AA1AA1AA1AAI
III1AI1AA1AA1AA1AA1AA1AA1AA1AA1AA1AA1AA1AA1AA1AA1AA1AA1AA1AA1AAI
III1AA1AA1AA1AA1AA1AA1AA1AA1AA1AA1AA1AA1AA1AA1AA1AA1AA1AA1AA1AAI
1AI1AA1AA1AA1AA1AA1AA1AA1AA1AA1AA1AA1AA1AA1AA1AA1AA1AA1AA1AA1AAI
1AA1AA1AA1AA1AA1AA1AA1AA1AA1AA1AA1AA1AA1AA1AA1AA1AA1AA1AA1AA1AAI
IIIIIIIIIIIIIIIIIIIIIIIIIIIIIIIIIIIIIIIIIIIIIIIIIIIIIIIIIII21AII
IIIIIIIIIIIIIIIIIIIIIIIIIIIIIIIIIIIIIIIIIIIIIIIIIIIIIIIIIII21AAI
IIIIIIIIIIIIIIIIIIIIIIIIIIIIIIIIIIIIIIIIIIIIIIIIIIIIIIII21A21AAI
IIIIIIIIIIIIIIIIIIIIIIIIIIIIIIIIIIIIIIIIIIIIIIIIIIIIIIII21AA1AAI
IIIIIIIIIIIIIIIIIIIIIIIIIIIIIIIIIIIIIIIIIIIIIIIIIIIII21A21AA1AAI
IIIIIIIIIIIIIIIIIIIIIIIIIIIIIIIIIIIIIIIIIIIIIIIIIIIII21AA1AA1AAI
IIIIIIIIIIIIIIIIIIIIIIIIIIIIIIIIIIIIIIIIIIIIIIIIII21A21AA1AA1AAI
IIIIIIIIIIIIIIIIIIIIIIIIIIIIIIIIIIIIIIIIIIIIIIIIII21AA1AA1AA1AAI
IIIIIIIIIIIIIIIIIIIIIIIIIIIIIIIIIIIIIIIIIIIIIII21A21AA1AA1AA1AAI
IIIIIIIIIIIIIIIIIIIIIIIIIIIIIIIIIIIIIIIIIIIIIII21AA1AA1AA1AA1AAI
IIIIIIIIIIIIIIIIIIIIIIIIIIIIIIIIIIIIIIIIIIII21A21AA1AA1AA1AA1AAI
IIIIIIIIIIIIIIIIIIIIIIIIIIIIIIIIIIIIIIIIIIII21AA1AA1AA1AA1AA1AAI
IIIIIIIIIIIIIIIIIIIIIIIIIIIIIIIIIIIIIIIII21A21AA1AA1AA1AA1AA1AAI
IIIIIIIIIIIIIIIIIIIIIIIIIIIIIIIIIIIIIIIII21AA1AA1AA1AA1AA1AA1AAI
IIIIIIIIIIIIIIIIIIIIIIIIIIIIIIIIIIIIII21A21AA1AA1AA1AA1AA1AA1AAI
IIIIIIIIIIIIIIIIIIIIIIIIIIIIIIIIIIIIII21AA1AA1AA1AA1AA1AA1AA1AAI
IIIIIIIIIIIIIIIIIIIIIIIIIIIIIIIIIII21A21AA1AA1AA1AA1AA1AA1AA1AAI
IIIIIIIIIIIIIIIIIIIIIIIIIIIIIIIIIII21AA1AA1AA1AA1AA1AA1AA1AA1AAI
IIIIIIIIIIIIIIIIIIIIIIIIIIIIIIII21A21AA1AA1AA1AA1AA1AA1AA1AA1AAI
IIIIIIIIIIIIIIIIIIIIIIIIIIIIIIII21AA1AA1AA1AA1AA1AA1AA1AA1AA1AAI
IIIIIIIIIIIIIIIIIIIIIIIIIIIII21A21AA1AA1AA1AA1AA1AA1AA1AA1AA1AAI
IIIIIIIIIIIIIIIIIIIIIIIIIIIII21AA1AA1AA1AA1AA1AA1AA1AA1AA1AA1AAI
IIIIIIIIIIIIIIIIIIIIIIIIIII1A21AA1AA1AA1AA1AA1AA1AA1AA1AA1AA1AAI
IIIIIIIIIIIIIIIIIIIIIIIIIII1AA1AA1AA1AA1AA1AA1AA1AA1AA1AA1AA1AAI
IIIIIIIIIIIIIIIIIIIIIIII1AI1AA1AA1AA1AA1AA1AA1AA1AA1AA1AA1AA1AAI
IIIIIIIIIIIIIIIIIIIIIIII1AA1AA1AA1AA1AA1AA1AA1AA1AA1AA1AA1AA1AAI
IIIIIIIIIIIIIIIIIIIII1AI1AA1AA1AA1AA1AA1AA1AA1AA1AA1AA1AA1AA1AAI
IIIIIIIIIIIIIIIIIIIII1AA1AA1AA1AA1AA1AA1AA1AA1AA1AA1AA1AA1AA1AAI
IIIIIIIIIIIIIIIIII1AI1AA1AA1AA1AA1AA1AA1AA1AA1AA1AA1AA1AA1AA1AAI
IIIIIIIIIIIIIIIIII1AA1AA1AA1AA1AA1AA1AA1AA1AA1AA1AA1AA1AA1AA1AAI
IIIIIIIIIIIIIII1AI1AA1AA1AA1AA1AA1AA1AA1AA1AA1AA1AA1AA1AA1AA1AAI
IIIIIIIIIIIIIII1AA1AA1AA1AA1AA1AA1AA1AA1AA1AA1AA1AA1AA1AA1AA1AAI
IIIIIIIIIIII1AI1AA1AA1AA1AA1AA1AA1AA1AA1AA1AA1AA1AA1AA1AA1AA1AAI
IIIIIIIIIIII1AA1AA1AA1AA1AA1AA1AA1AA1AA1AA1AA1AA1AA1AA1AA1AA1AAI
IIIIIIIII1AI1AA1AA1AA1AA1AA1AA1AA1AA1AA1AA1AA1AA1AA1AA1AA1AA1AAI
IIIIIIIII1AA1AA1AA1AA1AA1AA1AA1AA1AA1AA1AA1AA1AA1AA1AA1AA1AA1AAI
IIIIII1AI1AA1AA1AA1AA1AA1AA1AA1AA1AA1AA1AA1AA1AA1AA1AA1AA1AA1AAI
IIIIII1AA1AA1AA1AA1AA1AA1AA1AA1AA1AA1AA1AA1AA1AA1AA1AA1AA1AA1AAI
III1AI1AA1AA1AA1AA1AA1AA1AA1AA1AA1AA1AA1AA1AA1AA1AA1AA1AA1AA1AAI
III1AA1AA1AA1AA1AA1AA1AA1AA1AA1AA1AA1AA1AA1AA1AA1AA1AA1AA1AA1AAI
1AI1AA1AA1AA1AA1AA1AA1AA1AA1AA1AA1AA1AA1AA1AA1AA1AA1AA1AA1AA1AAI
1AA1AA1AA1AA1AA1AA1AA1AA1AA1AA1AA1AA1AA1AA1AA1AA1AA1AA1AA1AA1AAI
IIIIIIIIIIIIIIIIIIIIIIIIIIIIIIIIIIIII1II1II1II1II1II1II1II1IIAII
IIIIIIIIIIIIIIIIIIIIIIIIIIIIIIIIIIIII11I11I11I11I11I11I11I11IAAI
IIIIIIIIIIIIIIIIIIIIIIIIIIIIIIIIII1II11I11I11I11I11I11I11IA1IAAI
IIIIIIIIIIIIIIIIIIIIIIIIIIIIIIIIII1II11I11I11I11I11I11I11IAAIAAI
IIIIIIIIIIIIIIIIIIIIIIIIIIIIIII1II1II11I11I11I11I11I11IA1IAAIAAI
IIIIIIIIIIIIIIIIIIIIIIIIIIIIIII11I11I11I11I11I11I11I11IAAIAAIAAI
IIIIIIIIIIIIIIIIIIIIIIIIIIII1II11I11I11I11I11I11I11IA1IAAIAAIAAI
IIIIIIIIIIIIIIIIIIIIIIIIIIII11I11I11I11I11I11I11I11IAAIAAIAAIAAI
IIIIIIIIIIIIIIIIIIIIIIIII1II11I11I11I11I11I11I11IA1IAAIAAIAAIAAI
IIIIIIIIIIIIIIIIIIIIIIIII11I11I11I11I11I11I11I11IAAIAAIAAIAAIAAI
IIIIIIIIIIIIIIIIIIIIII1II11I11I11I11I11I11I11IA1IAAIAAIAAIAAIAAI
IIIIIIIIIIIIIIIIIIIIII11I11I11I11I11I11I11I11IAAIAAIAAIAAIAAIAAI
IIIIIIIIIIIIIIIIIII1II11I11I11I11I11I11I11IA1IAAIAAIAAIAAIAAIAAI
IIIIIIIIIIIIIIIIIII11I11I11I11I11I11I11I11IAAIAAIAAIAAIAAIAAIAAI
IIIIIIIIIIIIIIII1II11I11I11I11I11I11I11IA1IAAIAAIAAIAAIAAIAAIAAI
IIIIIIIIIIIIIIII11I11I11I11I11I11I11I11IAAIAAIAAIAAIAAIAAIAAIAAI
IIIIIIIIIIIII1II11I11I11I11I11I11I11IA1IAAIAAIAAIAAIAAIAAIAAIAAI
IIIIIIIIIIIII11I11I11I11I11I11I11I11IAAIAAIAAIAAIAAIAAIAAIAAIAAI
IIIIIIIIII1II11I11I11I11I11I11I11IA1IAAIAAIAAIAAIAAIAAIAAIAAIAAI
IIIIIIIIII11I11I11I11I11I11I11I11IAAIAAIAAIAAIAAIAAIAAIAAIAAIAAI
IIIIIII1II11I11I11I11I11I11I11IA1IAAIAAIAAIAAIAAIAAIAAIAAIAAIAAI
IIIIIII11I11I11I11I11I11I11I11IAAIAAIAAIAAIAAIAAIAAIAAIAAIAAIAAI
IIII1II11I11I11I11I11I11I11IA1IAAIAAIAAIAAIAAIAAIAAIAAIAAIAAIAAI
IIII11I11I11I11I11I11I11I11IAAIAAIAAIAAIAAIAAIAAIAAIAAIAAIAAIAAI
I1II11I11I11I11I11I11I11IA1IAAIAAIAAIAAIAAIAAIAAIAAIAAIAAIAAIAAI
I11I11I11I11I11I11I11I11IAAIAAIAAIAAIAAIAAIAAIAAIAAIAAIAAIAAIAAI
I11I11I11I11I11I11I11IA1IAAIAAIAAIAAIAAIAAIAAIAAIAAIAAIAAIAAIAAI
I11I11I11I11I11I11I11IAAIAAIAAIAAIAAIAAIAAIAAIAAIAAIAAIAAIAAIAAI
I11I11I11I11I11I11IA1IAAIAAIAAIAAIAAIAAIAAIAAIAAIAAIAAIAAIAAIAAI
I11I11I11I11I11I11IAAIAAIAAIAAIAAIAAIAAIAAIAAIAAIAAIAAIAAIAAIAAI
I11I11I11I11I11IA1IAAIAAIAAIAAIAAIAAIAAIAAIAAIAAIAAIAAIAAIAAIAAI
I11I11I11I11I11IAAIAAIAAIAAIAAIAAIAAIAAIAAIAAIAAIAAIAAIAAIAAIAAI
I11I11I11I11IA1IAAIAAIAAIAAIAAIAAIAAIAAIAAIAAIAAIAAIAAIAAIAAIAAI
I11I11I11I11IAAIAAIAAIAAIAAIAAIAAIAAIAAIAAIAAIAAIAAIAAIAAIAAIAAI
I11I11I11IA1IAAIAAIAAIAAIAAIAAIAAIAAIAAIAAIAAIAAIAAIAAIAAIAAIAAI
I11I11I11IAAIAAIAAIAAIAAIAAIAAIAAIAAIAAIAAIAAIAAIAAIAAIAAIAAIAAI
I11I11IA1IAAIAAIAAIAAIAAIAAIAAIAAIAAIAAIAAIAAIAAIAAIAAIAAIAAIAAI
I11I11IAAIAAIAAIAAIAAIAAIAAIAAIAAIAAIAAIAAIAAIAAIAAIAAIAAIAAIAAI
I11IA1IAAIAAIAAIAAIAAIAAIAAIAAIAAIAAIAAIAAIAAIAAIAAIAAIAAIAAIAAI
I11IAAIAAIAAIAAIAAIAAIAAIAAIAAIAAIAAIAAIAAIAAIAAIAAIAAIAAIAAIAAI
IA1IAAIAAIAAIAAIAAIAAIAAIAAIAAIAAIAAIAAIAAIAAIAAIAAIAAIAAIAAIAAI
IAAIAAIAAIAAIAAIAAIAAIAAIAAIAAIAAIAAIAAIAAIAAIAAIAAIAAIAAIAAIAAI
IIIIIIIIIIIIIIIIIIIIIIIIIIIIIIIIIIIIIIIIIIIIIIIIIIIIIIIIIIII1AII
IIIIIIIIIIIIIIIIIIIIIIIIIIIIIIIIIIIIIIIIIIIIIIIIIIIIIIIII1AI1A2I
IIIIIIIIIIIIIIIIIIIIIIIIIIIIIIIIIIIIIIIIIIIIIIIIIIIIIIIII1AI1AAI
IIIIIIIIIIIIIIIIIIIIIIIIIIIIIIIIIIIIIIIIIIIIIIIIIIIIIIIII1AA1AA2
IIIIIIIIIIIIIIIIIIIIIIIIIIIIIIIIIIIIIIIIIIIIIIIIIIIIII1AI1AA1AA2
IIIIIIIIIIIIIIIIIIIIIIIIIIIIIIIIIIIIIIIIIIIIIIIIIIIIII1AA1AA1AA2
IIIIIIIIIIIIIIIIIIIIIIIIIIIIIIIIIIIIIIIIIIIIIIIIIII1AI1AA1AA1AA2
IIIIIIIIIIIIIIIIIIIIIIIIIIIIIIIIIIIIIIIIIIIIIIIIIII1AA1AA1AA1AA2
IIIIIIIIIIIIIIIIIIIIIIIIIIIIIIIIIIIIIIIIIIIIIIII1AI1AA1AA1AA1AA2
IIIIIIIIIIIIIIIIIIIIIIIIIIIIIIIIIIIIIIIIIIIII1AI1A21AA1AA1AA1AA2
IIIIIIIIIIIIIIIIIIIIIIIIIIIIIIIIIIIIIIIIIIIII1AI1AA1AA1AA1AA1AA2
IIIIIIIIIIIIIIIIIIIIIIIIIIIIIIIIIIIIIIIIIIIII1AA1AA1AA1AA1AA1AA2
IIIIIIIIIIIIIIIIIIIIIIIIIIIIIIIIIIIIIIIIII1AI1AA1AA1AA1AA1AA1AA2
IIIIIIIIIIIIIIIIIIIIIIIIIIIIIIIIIIIIIIIIII1AA1AA1AA1AA1AA1AA1AA2
IIIIIIIIIIIIIIIIIIIIIIIIIIIIIIIIIIIIIII1AI1AA1AA1AA1AA1AA1AA1AA2
IIIIIIIIIIIIIIIIIIIIIIIIIIIIIIIIIIII1AI1A21AA1AA1AA1AA1AA1AA1AA2
IIIIIIIIIIIIIIIIIIIIIIIIIIIIIIIIIIII1AI1AA1AA1AA1AA1AA1AA1AA1AA2
IIIIIIIIIIIIIIIIIIIIIIIIIIIIIIIIIIII1AA1AA1AA1AA1AA1AA1AA1AA1AA2
IIIIIIIIIIIIIIIIIIIIIIIIIIIIIIIII1AI1AA1AA1AA1AA1AA1AA1AA1AA1AA2
IIIIIIIIIIIIIIIIIIIIIIIIIIIIIIIII1AA1AA1AA1AA1AA1AA1AA1AA1AA1AA2
IIIIIIIIIIIIIIIIIIIIIIIIIIIIII1AI1AA1AA1AA1AA1AA1AA1AA1AA1AA1AA2
IIIIIIIIIIIIIIIIIIIIIIIIIII1AI1A21AA1AA1AA1AA1AA1AA1AA1AA1AA1AA2
IIIIIIIIIIIIIIIIIIIIIIIIIII1AI1AA1AA1AA1AA1AA1AA1AA1AA1AA1AA1AA2
IIIIIIIIIIIIIIIIIIIIIIIIIII1AA1AA1AA1AA1AA1AA1AA1AA1AA1AA1AA1AA2
IIIIIIIIIIIIIIIIIIIIIIII1AI1AA1AA1AA1AA1AA1AA1AA1AA1AA1AA1AA1AA2
IIIIIIIIIIIIIIIIIIIIIIII1AA1AA1AA1AA1AA1AA1AA1AA1AA1AA1AA1AA1AA2
IIIIIIIIIIIIIIIIIIIII1AI1AA1AA1AA1AA1AA1AA1AA1AA1AA1AA1AA1AA1AA2
IIIIIIIIIIIIIIIIIIIII1AA1AA1AA1AA1AA1AA1AA1AA1AA1AA1AA1AA1AA1AA2
IIIIIIIIIIIIIIIIII1AI1AA1AA1AA1AA1AA1AA1AA1AA1AA1AA1AA1AA1AA1AA2
IIIIIIIIIIIIIII1AI1A21AA1AA1AA1AA1AA1AA1AA1AA1AA1AA1AA1AA1AA1AA2
IIIIIIIIIIIIIII1AI1AA1AA1AA1AA1AA1AA1AA1AA1AA1AA1AA1AA1AA1AA1AA2
IIIIIIIIIIIIIII1AA1AA1AA1AA1AA1AA1AA1AA1AA1AA1AA1AA1AA1AA1AA1AA2
IIIIIIIIIIII1AI1AA1AA1AA1AA1AA1AA1AA1AA1AA1AA1AA1AA1AA1AA1AA1AA2
IIIIIIIIIIII1AA1AA1AA1AA1AA1AA1AA1AA1AA1AA1AA1AA1AA1AA1AA1AA1AA2
IIIIIIIII1AI1AA1AA1AA1AA1AA1AA1AA1AA1AA1AA1AA1AA1AA1AA1AA1AA1AA2
IIIIIIIII1AA1AA1AA1AA1AA1AA1AA1AA1AA1AA1AA1AA1AA1AA1AA1AA1AA1AA2
IIIIII1AI1AA1AA1AA1AA1AA1AA1AA1AA1AA1AA1AA1AA1AA1AA1AA1AA1AA1AA2
III1AI1A21AA1AA1AA1AA1AA1AA1AA1AA1AA1AA1AA1AA1AA1AA1AA1AA1AA1AA2
III1AI1AA1AA1AA1AA1AA1AA1AA1AA1AA1AA1AA1AA1AA1AA1AA1AA1AA1AA1AA2
1AI1A21AA1AA1AA1AA1AA1AA1AA1AA1AA1AA1AA1AA1AA1AA1AA1AA1AA1AA1AA2
1AI1AA1AA1AA1AA1AA1AA1AA1AA1AA1AA1AA1AA1AA1AA1AA1AA1AA1AA1AA1AA2
1AA1AA1AA1AA1AA1AA1AA1AA1AA1AA1AA1AA1AA1AA1AA1AA1AA1AA1AA1AA1AA2
IIIIIIIIIIIIIIIIIIIIIIIIIIIIIIIIIIIIIIIIIIIIIIIIIIIIIIIIIIIIIAII
IIIIIIIIIIIIIIIIIIIIIIIIIIIIIIIIIIIIIIIIIIII1II1II1II1II1II1IAAI
IIIIIIIIIIIIIIIIIIIIIIIIIIIIIII1II1II1II1II11I11I11I11I11IA1IAAI
IIIIIIIIIIIIIIIIIIIIIIIIIIIIIII11I11I11I11I11I11I11I11I11IAAIAAI
IIIIIIIIIIIIIIIIIIIIIIIIIIII1II11I11I11I11I11I11I11I11IA1IAAIAAI
IIIIIIIIIIIIIIIIIIIIIIIIIIII1II11I11I11I11I11I11I11IA1IA1IAAIAAI
IIIIIIIIIIIIIIIIIIIIIIIIIIII1II11I11I11I11I11I11I11IA1IAAIAAIAAI
IIIIIIIIIIIIIIIIIIIIIIIIIIII1II11I11I11I11I11I11IA1IA1IAAIAAIAAI
IIIIIIIIIIIIIIIIIIIIIIIIIIII1II11I11I11I11I11I11IA1IAAIAAIAAIAAI
IIIIIIIIIIIIIIIIIII1II1II1II1II11I11I11I11I11IA1IA1IAAIAAIAAIAAI
IIIIIIIIIIIIIIIIIII1II11I11I11I11I11I11I11I11IA1IAAIAAIAAIAAIAAI
IIIIIIIIIIIIIIII1II1II11I11I11I11I11I11I11IA1IA1IAAIAAIAAIAAIAAI
IIIIIIIIIIIIIIII1II11I11I11I11I11I11I11I11IA1IAAIAAIAAIAAIAAIAAI
IIIIIIIIIIIIIIII1II11I11I11I11I11I11I11IA1IA1IAAIAAIAAIAAIAAIAAI
IIIIIIIIIIIIIIII1II11I11I11I11I11I11I11IA1IAAIAAIAAIAAIAAIAAIAAI
IIIIIIIIIIIIIIII1II11I11I11I11I11I11IA1IA1IAAIAAIAAIAAIAAIAAIAAI
IIIIIIIIIIIIIIII1II11I11I11I11I11I11IA1IAAIAAIAAIAAIAAIAAIAAIAAI
IIIIIIIIIIIIIIII1II11I11I11I11I11IA1IA1IAAIAAIAAIAAIAAIAAIAAIAAI
IIIIIIIIIIIIIIII1II11I11I11I11I11IA1IAAIAAIAAIAAIAAIAAIAAIAAIAAI
IIIIIIIIIIIIIIII1II11I11I11I11I11IAAIAAIAAIAAIAAIAAIAAIAAIAAIAAI
IIIIIIIIIIIIIIII1II11I11I11I11IA1IAAIAAIAAIAAIAAIAAIAAIAAIAAIAAI
IIIIIIIIIIIIIIII11I11I11I11I11IAAIAAIAAIAAIAAIAAIAAIAAIAAIAAIAAI
IIIIIIIIIIIIIIII11I11I11I11IA1IAAIAAIAAIAAIAAIAAIAAIAAIAAIAAIAAI
IIIIIIIIIIIIIIII11I11I11IA1IA1IAAIAAIAAIAAIAAIAAIAAIAAIAAIAAIAAI
IIIIIIIIIIIIIIII11I11I11IA1IAAIAAIAAIAAIAAIAAIAAIAAIAAIAAIAAIAAI
IIII1II1II1II1II11I11IA1IA1IAAIAAIAAIAAIAAIAAIAAIAAIAAIAAIAAIAAI
IIII1II1II1II1II11I11IA1IAAIAAIAAIAAIAAIAAIAAIAAIAAIAAIAAIAAIAAI
IIII1II1II1II1II11IA1IA1IAAIAAIAAIAAIAAIAAIAAIAAIAAIAAIAAIAAIAAI
IIII1II1II1II1II11IA1IAAIAAIAAIAAIAAIAAIAAIAAIAAIAAIAAIAAIAAIAAI
I1II1II1II1II1IIA1IA1IAAIAAIAAIAAIAAIAAIAAIAAIAAIAAIAAIAAIAAIAAI
I1II1II1II1II1IIA1IAAIAAIAAIAAIAAIAAIAAIAAIAAIAAIAAIAAIAAIAAIAAI
I1II1II1II1IIAIIA1IAAIAAIAAIAAIAAIAAIAAIAAIAAIAAIAAIAAIAAIAAIAAI
I1II1II1II1IIAIIAAIAAIAAIAAIAAIAAIAAIAAIAAIAAIAAIAAIAAIAAIAAIAAI
I1II1II1IIAIIAIIAAIAAIAAIAAIAAIAAIAAIAAIAAIAAIAAIAAIAAIAAIAAIAAI
I1II1II11IA1IAAIAAIAAIAAIAAIAAIAAIAAIAAIAAIAAIAAIAAIAAIAAIAAIAAI
I11I11I11IAAIAAIAAIAAIAAIAAIAAIAAIAAIAAIAAIAAIAAIAAIAAIAAIAAIAAI
I11I11IA1IAAIAAIAAIAAIAAIAAIAAIAAIAAIAAIAAIAAIAAIAAIAAIAAIAAIAAI
I11I11IAAIAAIAAIAAIAAIAAIAAIAAIAAIAAIAAIAAIAAIAAIAAIAAIAAIAAIAAI
I11IA1IAAIAAIAAIAAIAAIAAIAAIAAIAAIAAIAAIAAIAAIAAIAAIAAIAAIAAIAAI
IA1IA1IAAIAAIAAIAAIAAIAAIAAIAAIAAIAAIAAIAAIAAIAAIAAIAAIAAIAAIAAI
IA1IAAIAAIAAIAAIAAIAAIAAIAAIAAIAAIAAIAAIAAIAAIAAIAAIAAIAAIAAIAAI
IAAIAAIAAIAAIAAIAAIAAIAAIAAIAAIAAIAAIAAIAAIAAIAAIAAIAAIAAIAAIAAI
IIIIIIIIIIIIIIIIIIIIIIIIIIIIIIIIIIIIIIIIIIIIIIIIIIIIIII2IIII2AII
IIIIIIIIIIIIIIIIIIIIIIIIIIIIIIIIIIIIIIIIIIIIIIIIIIIIIII22III2AAI
IIIIIIIIIIIIIIIIIIIIIIIIIIIIIIIIIIIIIIIIIIIIIIIIIIII2II222AI2AAI
IIIIIIIIIIIIIIIIIIIIIIIIIIIIIIIIIIIIIIIIIIIIIIIIIIII22I222AA2AAI
IIIIIIIIIIIIIIIIIIIIIIIIIIIIIIIIIIIIIIIIIIIIIIIII2II222A22AA2AAI
IIIIIIIIIIIIIIIIIIIIIIIIIIIIIIIIIIIIIIIIIIIIIIIII22I222AA2AA2AAI
IIIIIIIIIIIIIIIIIIIIIIIIIIIIIIIIIIIIIIIIIIIIII2II222A22AA2AA2AAI
IIIIIIIIIIIIIIIIIIIIIIIIIIIIIIIIIIIIIIIIIIIIII22I222AA2AA2AA2AAI
IIIIIIIIIIIIIIIIIIIIIIIIIIIIIIIIIIIIIIIIIII2II222A22AA2AA2AA2AAI
IIIIIIIIIIIIIIIIIIIIIIIIIIIIIIIIIIIIIIIIIII22I222AA2AA2AA2AA2AAI
IIIIIIIIIIIIIIIIIIIIIIIIIIIIIIIIIIIIIIII2II222A22AA2AA2AA2AA2AAI
IIIIIIIIIIIIIIIIIIIIIIIIIIIIIIIIIIIIIIII22I222AA2AA2AA2AA2AA2AAI
IIIIIIIIIIIIIIIIIIIIIIIIIIIIIIIIIIIII2II222A22AA2AA2AA2AA2AA2AAI
IIIIIIIIIIIIIIIIIIIIIIIIIIIIIIIIII2II2I2A22A22AA2AA2AA2AA2AA2AAI
IIIIIIIIIIIIIIIIIIIIIIIIIIIIIIIIII2II222A22AA2AA2AA2AA2AA2AA2AAI
IIIIIIIIIIIIIIIIIIIIIIIIIIIIIIIIII22I222AA2AA2AA2AA2AA2AA2AA2AAI
IIIIIIIIIIIIIIIIIIIIIIIIIIIIIII2II222A22AA2AA2AA2AA2AA2AA2AA2AAI
IIIIIIIIIIIIIIIIIIIIIIIIIIIIIII22I222AA2AA2AA2AA2AA2AA2AA2AA2AAI
IIIIIIIIIIIIIIIIIIIIIIIIIIII2II222A22AA2AA2AA2AA2AA2AA2AA2AA2AAI
IIIIIIIIIIIIIIIIIIIIIIIIIIII22I222AA2AA2AA2AA2AA2AA2AA2AA2AA2AAI
IIIIIIIIIIIIIIIIIIIIIIIII2II222A22AA2AA2AA2AA2AA2AA2AA2AA2AA2AAI
IIIIIIIIIIIIIIIIIIIIIIIII22I222AA2AA2AA2AA2AA2AA2AA2AA2AA2AA2AAI
IIIIIIIIIIIIIIIIIIIIII2II222A22AA2AA2AA2AA2AA2AA2AA2AA2AA2AA2AAI
IIIIIIIIIIIIIIIIIII2II2I2A22A22AA2AA2AA2AA2AA2AA2AA2AA2AA2AA2AAI
IIIIIIIIIIIIIIIIIII2II222A22AA2AA2AA2AA2AA2AA2AA2AA2AA2AA2AA2AAI
IIIIIIIIIIIIIIIIIII22I222AA2AA2AA2AA2AA2AA2AA2AA2AA2AA2AA2AA2AAI
IIIIIIIIIIIIIIII2II222A22AA2AA2AA2AA2AA2AA2AA2AA2AA2AA2AA2AA2AAI
IIIIIIIIIIIII2II2I2A22A22AA2AA2AA2AA2AA2AA2AA2AA2AA2AA2AA2AA2AAI
IIIIIIIIIIIII2II222A22AA2AA2AA2AA2AA2AA2AA2AA2AA2AA2AA2AA2AA2AAI
IIIIIIIIII2II2I2A22A22AA2AA2AA2AA2AA2AA2AA2AA2AA2AA2AA2AA2AA2AAI
IIIIIIIIII2II222A22AA2AA2AA2AA2AA2AA2AA2AA2AA2AA2AA2AA2AA2AA2AAI
IIIIIIIIII22I222AA2AA2AA2AA2AA2AA2AA2AA2AA2AA2AA2AA2AA2AA2AA2AAI
IIIIIII2II222A22AA2AA2AA2AA2AA2AA2AA2AA2AA2AA2AA2AA2AA2AA2AA2AAI
IIIIIII22I222AA2AA2AA2AA2AA2AA2AA2AA2AA2AA2AA2AA2AA2AA2AA2AA2AAI
IIII2II222A22AA2AA2AA2AA2AA2AA2AA2AA2AA2AA2AA2AA2AA2AA2AA2AA2AAI
IIII22I222AA2AA2AA2AA2AA2AA2AA2AA2AA2AA2AA2AA2AA2AA2AA2AA2AA2AAI
I2II222A22AA2AA2AA2AA2AA2AA2AA2AA2AA2AA2AA2AA2AA2AA2AA2AA2AA2AAI
I22I222AA2AA2AA2AA2AA2AA2AA2AA2AA2AA2AA2AA2AA2AA2AA2AA2AA2AA2AAI
I222A22AA2AA2AA2AA2AA2AA2AA2AA2AA2AA2AA2AA2AA2AA2AA2AA2AA2AA2AAI
2A22A22AA2AA2AA2AA2AA2AA2AA2AA2AA2AA2AA2AA2AA2AA2AA2AA2AA2AA2AAI
2A22AA2AA2AA2AA2AA2AA2AA2AA2AA2AA2AA2AA2AA2AA2AA2AA2AA2AA2AA2AAI
2AA2AA2AA2AA2AA2AA2AA2AA2AA2AA2AA2AA2AA2AA2AA2AA2AA2AA2AA2AA2AAI
IIIIIIIIIIIIIIIIIIIIIIIIIIIIIIIIIIIIIIIIIIIIII2II2II2II2II1IIAII
IIIIIIIIIIIIIIIIIIIIIIIIIIIIIIIIIIIIIIIIIIIIII22I22I22I22I11IAAI
IIIIIIIIIIIIIIIIIIIIIIIIIIIIIIIIIIIIIIIIIII2II22I22I22I12IA1IAAI
IIIIIIIIIIIIIIIIIIIIIIIIIIIIIIIIIIIIIIIIIII22I22I22I22I11IAAIAAI
IIIIIIIIIIIIIIIIIIIIIIIIIIIIIIIIIIIIIIII2II22I22I22I12IA1IAAIAAI
IIIIIIIIIIIIIIIIIIIIIIIIIIIIIIIIIIIII2II2II22I22I12IA2IA1IAAIAAI
IIIIIIIIIIIIIIIIIIIIIIIIIIIIIIIIIIIII2II22I22I22I12IA1IAAIAAIAAI
IIIIIIIIIIIIIIIIIIIIIIIIIIIIIIIIII2II2II22I22I12IA2IA1IAAIAAIAAI
IIIIIIIIIIIIIIIIIIIIIIIIIIIIIIIIII2II22I22I22I12IA1IAAIAAIAAIAAI
IIIIIIIIIIIIIIIIIIIIIIIIIIIIIII2II2II22I22I12IA2IA1IAAIAAIAAIAAI
IIIIIIIIIIIIIIIIIIIIIIIIIIIIIII2II22I22I22I12IA1IAAIAAIAAIAAIAAI
IIIIIIIIIIIIIIIIIIIIIIIIIIII2II2II22I22I12IA2IA1IAAIAAIAAIAAIAAI
IIIIIIIIIIIIIIIIIIIIIIIIIIII2II22I22I22I12IA1IAAIAAIAAIAAIAAIAAI
IIIIIIIIIIIIIIIIIIIIIIIIIIII22I22I22I22I11IAAIAAIAAIAAIAAIAAIAAI
IIIIIIIIIIIIIIIIIIIIIIIII2II22I22I22I12IA1IAAIAAIAAIAAIAAIAAIAAI
IIIIIIIIIIIIIIIIIIIIIIIII22I22I22I22I11IAAIAAIAAIAAIAAIAAIAAIAAI
IIIIIIIIIIIIIIIIIIIIII2II22I22I22I12IA1IAAIAAIAAIAAIAAIAAIAAIAAI
IIIIIIIIIIIIIIIIIII2II2II22I22I12IA2IA1IAAIAAIAAIAAIAAIAAIAAIAAI
IIIIIIIIIIIIIIIIIII2II22I22I22I12IA1IAAIAAIAAIAAIAAIAAIAAIAAIAAI
IIIIIIIIIIIIIIIIIII22I22I22I22I11IAAIAAIAAIAAIAAIAAIAAIAAIAAIAAI
IIIIIIIIIIIIIIII2II22I22I22I12IA1IAAIAAIAAIAAIAAIAAIAAIAAIAAIAAI
IIIIIIIIIIIII2II2II22I22I12IA2IA1IAAIAAIAAIAAIAAIAAIAAIAAIAAIAAI
IIIIIIIIIIIII2II22I22I22I12IA1IAAIAAIAAIAAIAAIAAIAAIAAIAAIAAIAAI
IIIIIIIIIIIII22I22I22I22I11IAAIAAIAAIAAIAAIAAIAAIAAIAAIAAIAAIAAI
IIIIIIIIII2II22I22I22I12IA1IAAIAAIAAIAAIAAIAAIAAIAAIAAIAAIAAIAAI
IIIIIIIIII22I22I22I22I11IAAIAAIAAIAAIAAIAAIAAIAAIAAIAAIAAIAAIAAI
IIIIIII2II22I22I22I12IA1IAAIAAIAAIAAIAAIAAIAAIAAIAAIAAIAAIAAIAAI
IIII2II2II22I22I12IA2IA1IAAIAAIAAIAAIAAIAAIAAIAAIAAIAAIAAIAAIAAI
IIII2II22I22I22I12IA1IAAIAAIAAIAAIAAIAAIAAIAAIAAIAAIAAIAAIAAIAAI
I2II2II22I22I12IA2IA1IAAIAAIAAIAAIAAIAAIAAIAAIAAIAAIAAIAAIAAIAAI
I2II22I22I22I12IA1IAAIAAIAAIAAIAAIAAIAAIAAIAAIAAIAAIAAIAAIAAIAAI
I22I22I22I22I11IAAIAAIAAIAAIAAIAAIAAIAAIAAIAAIAAIAAIAAIAAIAAIAAI
I22I22I22I12IA1IAAIAAIAAIAAIAAIAAIAAIAAIAAIAAIAAIAAIAAIAAIAAIAAI
I22I22I12IA2IA1IAAIAAIAAIAAIAAIAAIAAIAAIAAIAAIAAIAAIAAIAAIAAIAAI
I22I22I12IA1IAAIAAIAAIAAIAAIAAIAAIAAIAAIAAIAAIAAIAAIAAIAAIAAIAAI
I22I22I11IAAIAAIAAIAAIAAIAAIAAIAAIAAIAAIAAIAAIAAIAAIAAIAAIAAIAAI
I22I221A1IAAIAAIAAIAAIAAIAAIAAIAAIAAIAAIAAIAAIAAIAAIAAIAAIAAIAAI
I221A21A1IAAIAAIAAIAAIAAIAAIAAIAAIAAIAAIAAIAAIAAIAAIAAIAAIAAIAAI
I221A21AAIAAIAAIAAIAAIAAIAAIAAIAAIAAIAAIAAIAAIAAIAAIAAIAAIAAIAAI
1A21A21AAIAAIAAIAAIAAIAAIAAIAAIAAIAAIAAIAAIAAIAAIAAIAAIAAIAAIAAI
1A21AA1AAIAAIAAIAAIAAIAAIAAIAAIAAIAAIAAIAAIAAIAAIAAIAAIAAIAAIAAI
1AA1AA1AAIAAIAAIAAIAAIAAIAAIAAIAAIAAIAAIAAIAAIAAIAAIAAIAAIAAIAAI
IIIIIIIIIIIIIIIIIIIIIIIIIIIIIIIIIIIIIIIIIIIIIIIIIIIIIIIIIIII1AII
IIIIIIIIIIIIIIIIIIIIIIIIIIIIIIIIIIIIIIIIIIIIIIIIIIIIIIIIIIII1AAI
IIIIIIIIIIIIIIIIIIIIIIIIIIIIIIIIIIIIIIIIIIIIIIIIIIIIIIIII1AI1AAI
IIIIIIIIIIIIIIIIIIIIIIIIIIIIIIIIIIIIIIIIIIIIIIIIIIIIIIIII1AA1AAI
IIIIIIIIIIIIIIIIIIIIIIIIIIIIIIIIIIIIIIIIIIIIIIIIIIIIII1AI1AA1AAI
IIIIIIIIIIIIIIIIIIIIIIIIIIIIIIIIIIIIIIIIIIIIIIIIIIIIII1AA1AA1AAI
IIIIIIIIIIIIIIIIIIIIIIIIIIIIIIIIIIIIIIIIIIIIIIIIIII1AI1AA1AA1AAI
IIIIIIIIIIIIIIIIIIIIIIIIIIIIIIIIIIIIIIIIIIIIIIIIIII1AA1AA1AA1AAI
IIIIIIIIIIIIIIIIIIIIIIIIIIIIIIIIIIIIIIIIIIIIIIII1AI1AA1AA1AA1AAI
IIIIIIIIIIIIIIIIIIIIIIIIIIIIIIIIIIIIIIIIIIIIIIII1AA1AA1AA1AA1AAI
IIIIIIIIIIIIIIIIIIIIIIIIIIIIIIIIIIIIIIIIIIIII1AI1AA1AA1AA1AA1AAI
IIIIIIIIIIIIIIIIIIIIIIIIIIIIIIIIIIIIIIIIIIIII1AA1AA1AA1AA1AA1AAI
IIIIIIIIIIIIIIIIIIIIIIIIIIIIIIIIIIIIIIIIII1AI1AA1AA1AA1AA1AA1AAI
IIIIIIIIIIIIIIIIIIIIIIIIIIIIIIIIIIIIIIIIII1AA1AA1AA1AA1AA1AA1AAI
IIIIIIIIIIIIIIIIIIIIIIIIIIIIIIIIIIIIIII1AI1AA1AA1AA1AA1AA1AA1AAI
IIIIIIIIIIIIIIIIIIIIIIIIIIIIIIIIIIIIIII1AA1AA1AA1AA1AA1AA1AA1AAI
IIIIIIIIIIIIIIIIIIIIIIIIIIIIIIIIIIII1AI1AA1AA1AA1AA1AA1AA1AA1AAI
IIIIIIIIIIIIIIIIIIIIIIIIIIIIIIIIIIII1AA1AA1AA1AA1AA1AA1AA1AA1AAI
IIIIIIIIIIIIIIIIIIIIIIIIIIIIIIIII1AI1AA1AA1AA1AA1AA1AA1AA1AA1AAI
IIIIIIIIIIIIIIIIIIIIIIIIIIIIIIIII1AA1AA1AA1AA1AA1AA1AA1AA1AA1AAI
IIIIIIIIIIIIIIIIIIIIIIIIIIIIII1AI1AA1AA1AA1AA1AA1AA1AA1AA1AA1AAI
IIIIIIIIIIIIIIIIIIIIIIIIIIIIII1AA1AA1AA1AA1AA1AA1AA1AA1AA1AA1AAI
IIIIIIIIIIIIIIIIIIIIIIIIIII1AI1AA1AA1AA1AA1AA1AA1AA1AA1AA1AA1AAI
IIIIIIIIIIIIIIIIIIIIIIIIIII1AA1AA1AA1AA1AA1AA1AA1AA1AA1AA1AA1AAI
IIIIIIIIIIIIIIIIIIIIIIII1AI1AA1AA1AA1AA1AA1AA1AA1AA1AA1AA1AA1AAI
IIIIIIIIIIIIIIIIIIIIIIII1AA1AA1AA1AA1AA1AA1AA1AA1AA1AA1AA1AA1AAI
IIIIIIIIIIIIIIIIIIIII1AI1AA1AA1AA1AA1AA1AA1AA1AA1AA1AA1AA1AA1AAI
IIIIIIIIIIIIIIIIIIIII1AA1AA1AA1AA1AA1AA1AA1AA1AA1AA1AA1AA1AA1AAI
IIIIIIIIIIIIIIIIII1AI1AA1AA1AA1AA1AA1AA1AA1AA1AA1AA1AA1AA1AA1AAI
IIIIIIIIIIIIIIIIII1AA1AA1AA1AA1AA1AA1AA1AA1AA1AA1AA1AA1AA1AA1AAI
IIIIIIIIIIIIIII1AI1AA1AA1AA1AA1AA1AA1AA1AA1AA1AA1AA1AA1AA1AA1AAI
IIIIIIIIIIIIIII1AA1AA1AA1AA1AA1AA1AA1AA1AA1AA1AA1AA1AA1AA1AA1AAI
IIIIIIIIIIII1AI1AA1AA1AA1AA1AA1AA1AA1AA1AA1AA1AA1AA1AA1AA1AA1AAI
IIIIIIIIIIII1AA1AA1AA1AA1AA1AA1AA1AA1AA1AA1AA1AA1AA1AA1AA1AA1AAI
IIIIIIIII1AI1AA1AA1AA1AA1AA1AA1AA1AA1AA1AA1AA1AA1AA1AA1AA1AA1AAI
IIIIIIIII1AA1AA1AA1AA1AA1AA1AA1AA1AA1AA1AA1AA1AA1AA1AA1AA1AA1AAI
IIIIII1AI1AA1AA1AA1AA1AA1AA1AA1AA1AA1AA1AA1AA1AA1AA1AA1AA1AA1AAI
IIIIII1AA1AA1AA1AA1AA1AA1AA1AA1AA1AA1AA1AA1AA1AA1AA1AA1AA1AA1AAI
III1AI1AA1AA1AA1AA1AA1AA1AA1AA1AA1AA1AA1AA1AA1AA1AA1AA1AA1AA1AAI
III1AA1AA1AA1AA1AA1AA1AA1AA1AA1AA1AA1AA1AA1AA1AA1AA1AA1AA1AA1AAI
1AI1AA1AA1AA1AA1AA1AA1AA1AA1AA1AA1AA1AA1AA1AA1AA1AA1AA1AA1AA1AAI
1AA1AA1AA1AA1AA1AA1AA1AA1AA1AA1AA1AA1AA1AA1AA1AA1AA1AA1AA1AA1AAI
IIIIIIIIIIIIIIIIIIIIIIIIIIIIIIIIII2II2II2II2II2II1II1II1II1IIAII
IIIIIIIIIIIIIIIIIIIIIIIIIIIIIII2II2II2II2II2II1II1II1II1IIAIIAII
IIIIIIIIIIIIIIIIIIIIIIIIIIIIIII2II22I22I22I22I12I11I11I11IA1IAAI
IIIIIIIIIIIIIIIIIIIIIIIIIIIIIII22I22I22I22I22I11I11I11I11IAAIAAI
IIIIIIIIIIIIIIIIIIIIIIIIIIII2II22I22I22I22I12I11I11I11IA1IAAIAAI
IIIIIIIIIIIIIIIIIIIIIIIIIIII22I22I22I22I22I11I11I11I11IAAIAAIAAI
IIIIIIIIIIIIIIIIIIIIIIIII2II22I22I22I22I12I11I11I11IA1IAAIAAIAAI
IIIIIIIIIIIIIIIIIIIIII2II2II22I22I22I12I12I11I11IA1IA1IAAIAAIAAI
IIIIIIIIIIIIIIIIIIIIII2II22I22I22I22I12I11I11I11IA1IAAIAAIAAIAAI
IIIIIIIIIIIIIIIIIII2II2II22I22I22I12I12I11I11IA1IA1IAAIAAIAAIAAI
IIIIIIIIIIIIIIIIIII2II22I22I22I22I12I11I11I11IA1IAAIAAIAAIAAIAAI
IIIIIIIIIIIIIIII2II2II22I22I22I12I12I11I11IA1IA1IAAIAAIAAIAAIAAI
IIIIIIIIIIIIIIII2II22I22I22I22I12I11I11I11IA1IAAIAAIAAIAAIAAIAAI
IIIIIIIIIIIII2II2II22I22I22I12I12I11I11IA1IA1IAAIAAIAAIAAIAAIAAI
IIIIIIIIIIIII2II22I22I22I22I12I11I11I11IA1IAAIAAIAAIAAIAAIAAIAAI
IIIIIIIIII2II2II22I22I22I12I12I11I11IA1IA1IAAIAAIAAIAAIAAIAAIAAI
IIIIIIIIII2II22I22I22I22I12I11I11I11IA1IAAIAAIAAIAAIAAIAAIAAIAAI
IIIIIII2II2II22I22I22I12I12I11I11IA1IA1IAAIAAIAAIAAIAAIAAIAAIAAI
IIIIIII2II22I22I22I22I12I11I11I11IA1IAAIAAIAAIAAIAAIAAIAAIAAIAAI
IIIIIII22I22I22I22I22I11I11I11I11IAAIAAIAAIAAIAAIAAIAAIAAIAAIAAI
IIII2II22I22I22I22I12I11I11I11IA1IAAIAAIAAIAAIAAIAAIAAIAAIAAIAAI
IIII22I22I22I22I22I11I11I11I11IAAIAAIAAIAAIAAIAAIAAIAAIAAIAAIAAI
I2II22I22I22I22I12I11I11I11IA1IAAIAAIAAIAAIAAIAAIAAIAAIAAIAAIAAI
I2II22I22I22I12I12I11I11IA1IA1IAAIAAIAAIAAIAAIAAIAAIAAIAAIAAIAAI
I22I22I22I22I12I11I11I11IA1IAAIAAIAAIAAIAAIAAIAAIAAIAAIAAIAAIAAI
I22I22I22I12I12I11I11IA1IA1IAAIAAIAAIAAIAAIAAIAAIAAIAAIAAIAAIAAI
I22I22I22I12I11I11I11IA1IAAIAAIAAIAAIAAIAAIAAIAAIAAIAAIAAIAAIAAI
I22I22I12I12I11I11IA1IA1IAAIAAIAAIAAIAAIAAIAAIAAIAAIAAIAAIAAIAAI
I22I22I12I11I11I11IA1IAAIAAIAAIAAIAAIAAIAAIAAIAAIAAIAAIAAIAAIAAI
I22I12I12I11I11IA1IA1IAAIAAIAAIAAIAAIAAIAAIAAIAAIAAIAAIAAIAAIAAI
I22I12I11I11I11IA1IAAIAAIAAIAAIAAIAAIAAIAAIAAIAAIAAIAAIAAIAAIAAI
I12I12I11I11IA1IA1IAAIAAIAAIAAIAAIAAIAAIAAIAAIAAIAAIAAIAAIAAIAAI
I12I11I11I11IA1IAAIAAIAAIAAIAAIAAIAAIAAIAAIAAIAAIAAIAAIAAIAAIAAI
I12I11I11IA1IA1IAAIAAIAAIAAIAAIAAIAAIAAIAAIAAIAAIAAIAAIAAIAAIAAI
I11I11I11IA1IAAIAAIAAIAAIAAIAAIAAIAAIAAIAAIAAIAAIAAIAAIAAIAAIAAI
I11I11I11IAAIAAIAAIAAIAAIAAIAAIAAIAAIAAIAAIAAIAAIAAIAAIAAIAAIAAI
I11I11IA1IAAIAAIAAIAAIAAIAAIAAIAAIAAIAAIAAIAAIAAIAAIAAIAAIAAIAAI
I11I11IAAIAAIAAIAAIAAIAAIAAIAAIAAIAAIAAIAAIAAIAAIAAIAAIAAIAAIAAI
I11IA1IAAIAAIAAIAAIAAIAAIAAIAAIAAIAAIAAIAAIAAIAAIAAIAAIAAIAAIAAI
IA1IA1IAAIAAIAAIAAIAAIAAIAAIAAIAAIAAIAAIAAIAAIAAIAAIAAIAAIAAIAAI
IA1IAAIAAIAAIAAIAAIAAIAAIAAIAAIAAIAAIAAIAAIAAIAAIAAIAAIAAIAAIAAI
IAAIAAIAAIAAIAAIAAIAAIAAIAAIAAIAAIAAIAAIAAIAAIAAIAAIAAIAAIAAIAAI
IIIIIIIIIIIIIIIIIIIIIIIIIIIIIIIIIIIIIIIIIIIIII1II1II1II1II1IIAII
IIIIIIIIIIIIIIIIIIIIIIIIIIIIIIIIIII2II2II2II2I11I11I11I11I11IAAI
IIIIIIIIIIIIIIIIIIIIIIIIIIIIIII2II22I22I22I12I11I11I11I11IA1IAAI
IIIIIIIIIIIIIIIIIIIIIIIIIIIIIII22I22I22I22I11I11I11I11I11IAAIAAI
IIIIIIIIIIIIIIIIIIIIIIIIIIII2II22I22I22I12I11I11I11I11IA1IAAIAAI
IIIIIIIIIIIIIIIIIIIIIIIII2II2II22I22I12I12I11I11I11IA1IA1IAAIAAI
IIIIIIIIIIIIIIIIIIIIIIIII2II22I22I22I12I11I11I11I11IA1IAAIAAIAAI
IIIIIIIIIIIIIIIIIIIIII2II2II22I22I12I12I11I11I11IA1IA1IAAIAAIAAI
IIIIIIIIIIIIIIIIIIIIII2II22I22I22I12I11I11I11I11IA1IAAIAAIAAIAAI
IIIIIIIIIIIIIIIIIIIIII22I22I22I22I11I11I11I11I11IAAIAAIAAIAAIAAI
IIIIIIIIIIIIIIIIIII2II22I22I22I12I11I11I11I11IA1IAAIAAIAAIAAIAAI
IIIIIIIIIIIIIIII2II2II22I22I12I12I11I11I11IA1IA1IAAIAAIAAIAAIAAI
IIIIIIIIIIIIIIII2II22I22I22I12I11I11I11I11IA1IAAIAAIAAIAAIAAIAAI
IIIIIIIIIIIII2II2II22I22I12I12I11I11I11IA1IA1IAAIAAIAAIAAIAAIAAI
IIIIIIIIIIIII2II22I22I22I12I11I11I11I11IA1IAAIAAIAAIAAIAAIAAIAAI
IIIIIIIIII2II2II22I22I12I12I11I11I11IA1IA1IAAIAAIAAIAAIAAIAAIAAI
IIIIIIIIII2II22I22I22I12I11I11I11I11IA1IAAIAAIAAIAAIAAIAAIAAIAAI
IIIIIII2II2II22I22I12I12I11I11I11IA1IA1IAAIAAIAAIAAIAAIAAIAAIAAI
IIIIIII2II22I22I22I12I11I11I11I11IA1IAAIAAIAAIAAIAAIAAIAAIAAIAAI
IIIIIII22I22I22I22I11I11I11I11I11IAAIAAIAAIAAIAAIAAIAAIAAIAAIAAI
IIII2II22I22I22I12I11I11I11I11IA1IAAIAAIAAIAAIAAIAAIAAIAAIAAIAAI
IIII22I22I22I22I11I11I11I11I11IAAIAAIAAIAAIAAIAAIAAIAAIAAIAAIAAI
I2II22I22I22I12I11I11I11I11IA1IAAIAAIAAIAAIAAIAAIAAIAAIAAIAAIAAI
I2II22I22I12I12I11I11I11IA1IA1IAAIAAIAAIAAIAAIAAIAAIAAIAAIAAIAAI
I22I22I22I12I11I11I11I11IA1IAAIAAIAAIAAIAAIAAIAAIAAIAAIAAIAAIAAI
I22I22I12I12I11I11I11IA1IA1IAAIAAIAAIAAIAAIAAIAAIAAIAAIAAIAAIAAI
I22I22I12I11I11I11I11IA1IAAIAAIAAIAAIAAIAAIAAIAAIAAIAAIAAIAAIAAI
I22I12I12I11I11I11IA1IA1IAAIAAIAAIAAIAAIAAIAAIAAIAAIAAIAAIAAIAAI
I22I12I11I11I11I11IA1IAAIAAIAAIAAIAAIAAIAAIAAIAAIAAIAAIAAIAAIAAI
I12I12I11I11I11IA1IA1IAAIAAIAAIAAIAAIAAIAAIAAIAAIAAIAAIAAIAAIAAI
I12I11I11I11I11IA1IAAIAAIAAIAAIAAIAAIAAIAAIAAIAAIAAIAAIAAIAAIAAI
I11I11I11I11I11IAAIAAIAAIAAIAAIAAIAAIAAIAAIAAIAAIAAIAAIAAIAAIAAI
I11I11I11I11IA1IAAIAAIAAIAAIAAIAAIAAIAAIAAIAAIAAIAAIAAIAAIAAIAAI
I11I11I11IA1IA1IAAIAAIAAIAAIAAIAAIAAIAAIAAIAAIAAIAAIAAIAAIAAIAAI
I11I11I11IA1IAAIAAIAAIAAIAAIAAIAAIAAIAAIAAIAAIAAIAAIAAIAAIAAIAAI
I11I11I11IAAIAAIAAIAAIAAIAAIAAIAAIAAIAAIAAIAAIAAIAAIAAIAAIAAIAAI
I11I11IA1IAAIAAIAAIAAIAAIAAIAAIAAIAAIAAIAAIAAIAAIAAIAAIAAIAAIAAI
I11I11IAAIAAIAAIAAIAAIAAIAAIAAIAAIAAIAAIAAIAAIAAIAAIAAIAAIAAIAAI
I11IA1IAAIAAIAAIAAIAAIAAIAAIAAIAAIAAIAAIAAIAAIAAIAAIAAIAAIAAIAAI
IA1IA1IAAIAAIAAIAAIAAIAAIAAIAAIAAIAAIAAIAAIAAIAAIAAIAAIAAIAAIAAI
IA1IAAIAAIAAIAAIAAIAAIAAIAAIAAIAAIAAIAAIAAIAAIAAIAAIAAIAAIAAIAAI
IAAIAAIAAIAAIAAIAAIAAIAAIAAIAAIAAIAAIAAIAAIAAIAAIAAIAAIAAIAAIAAI
IIIIIIIIIIIIIIIIIIIIIIIIIIIIIIIIIIIIIIIIIII2II1II1II1II1II1IIAII
IIIIIIIIIIIIIIIIIIIIIIIIIIIIIII2II2II2II2II1II1II1II1II1IIAIIAII
IIIIIIIIIIIIIIIIIIIIIIIIIIIIIII2II2II2II2II1II1II1II1II1IIA1IAAI
IIIIIIIIIIIIIIIIIIIIIIIIIIIIIII2II2II2II2II11I11I11I11I11IAAIAAI
IIIIIIIIIIIIIIIIIIIIIIIIIIII2II2II2II2II1II11I11I11I11IA1IAAIAAI
IIIIIIIIIIIIIIIIIIIIIIIII2II2II2II2II1II1II11I11I11IA1IA1IAAIAAI
IIIIIIIIIIIIIIIIIIIIIIIII2II22I22I22I12I11I11I11I11IA1IAAIAAIAAI
IIIIIIIIIIIIIIIIIIIIII2II2II22I22I12I12I11I11I11IA1IA1IAAIAAIAAI
IIIIIIIIIIIIIIIIIIIIII2II22I22I22I12I11I11I11I11IA1IAAIAAIAAIAAI
IIIIIIIIIIIIIIIIIIIIII22I22I22I22I11I11I11I11I11IAAIAAIAAIAAIAAI
IIIIIIIIIIIIIIIIIII2II22I22I22I12I11I11I11I11IA1IAAIAAIAAIAAIAAI
IIIIIIIIIIIIIIII2II2II22I22I12I12I11I11I11IA1IA1IAAIAAIAAIAAIAAI
IIIIIIIIIIIIIIII2II22I22I22I12I11I11I11I11IA1IAAIAAIAAIAAIAAIAAI
IIIIIIIIIIIII2II2II22I22I12I12I11I11I11IA1IA1IAAIAAIAAIAAIAAIAAI
IIIIIIIIIIIII2II22I22I22I12I11I11I11I11IA1IAAIAAIAAIAAIAAIAAIAAI
IIIIIIIIII2II2II22I22I12I12I11I11I11IA1IA1IAAIAAIAAIAAIAAIAAIAAI
IIIIIIIIII2II22I22I22I12I11I11I11I11IA1IAAIAAIAAIAAIAAIAAIAAIAAI
IIIIIII2II2II22I22I12I12I11I11I11IA1IA1IAAIAAIAAIAAIAAIAAIAAIAAI
IIIIIII2II22I22I22I12I11I11I11I11IA1IAAIAAIAAIAAIAAIAAIAAIAAIAAI
IIII2II2II22I22I12I12I11I11I11IA1IA1IAAIAAIAAIAAIAAIAAIAAIAAIAAI
IIII2II22I22I22I12I11I11I11I11IA1IAAIAAIAAIAAIAAIAAIAAIAAIAAIAAI
I2II2II22I22I12I12I11I11I11IA1IA1IAAIAAIAAIAAIAAIAAIAAIAAIAAIAAI
I2II22I22I22I12I11I11I11I11IA1IAAIAAIAAIAAIAAIAAIAAIAAIAAIAAIAAI
I22I22I22I22I11I11I11I11I11IAAIAAIAAIAAIAAIAAIAAIAAIAAIAAIAAIAAI
I22I22I22I12I11I11I11I11IA1IAAIAAIAAIAAIAAIAAIAAIAAIAAIAAIAAIAAI
I22I22I12I12I11I11I11IA1IA1IAAIAAIAAIAAIAAIAAIAAIAAIAAIAAIAAIAAI
I22I22I12I11I11I11I11IA1IAAIAAIAAIAAIAAIAAIAAIAAIAAIAAIAAIAAIAAI
I22I12I12I11I11I11IA1IA1IAAIAAIAAIAAIAAIAAIAAIAAIAAIAAIAAIAAIAAI
I22I12I11I11I11I11IA1IAAIAAIAAIAAIAAIAAIAAIAAIAAIAAIAAIAAIAAIAAI
I12I12I11I11I11IA1IA1IAAIAAIAAIAAIAAIAAIAAIAAIAAIAAIAAIAAIAAIAAI
I12I11I11I11I11IA1IAAIAAIAAIAAIAAIAAIAAIAAIAAIAAIAAIAAIAAIAAIAAI
I12I11I11I11IA1IA1IAAIAAIAAIAAIAAIAAIAAIAAIAAIAAIAAIAAIAAIAAIAAI
I11I11I11I11IA1IAAIAAIAAIAAIAAIAAIAAIAAIAAIAAIAAIAAIAAIAAIAAIAAI
I11I11I11IA1IA1IAAIAAIAAIAAIAAIAAIAAIAAIAAIAAIAAIAAIAAIAAIAAIAAI
I11I11I11IA1IAAIAAIAAIAAIAAIAAIAAIAAIAAIAAIAAIAAIAAIAAIAAIAAIAAI
I11I11IA1IA1IAAIAAIAAIAAIAAIAAIAAIAAIAAIAAIAAIAAIAAIAAIAAIAAIAAI
I11I11IA1IAAIAAIAAIAAIAAIAAIAAIAAIAAIAAIAAIAAIAAIAAIAAIAAIAAIAAI
I11I11IAAIAAIAAIAAIAAIAAIAAIAAIAAIAAIAAIAAIAAIAAIAAIAAIAAIAAIAAI
I11IA1IAAIAAIAAIAAIAAIAAIAAIAAIAAIAAIAAIAAIAAIAAIAAIAAIAAIAAIAAI
IA1IA1IAAIAAIAAIAAIAAIAAIAAIAAIAAIAAIAAIAAIAAIAAIAAIAAIAAIAAIAAI
IA1IAAIAAIAAIAAIAAIAAIAAIAAIAAIAAIAAIAAIAAIAAIAAIAAIAAIAAIAAIAAI
IAAIAAIAAIAAIAAIAAIAAIAAIAAIAAIAAIAAIAAIAAIAAIAAIAAIAAIAAIAAIAAI
IIIIIIIIIIIIIIIIIIIIIIIIIIIIIIIIIIIIIIII2II2II2II1II1II1II1IIAII
IIIIIIIIIIIIIIIIIIIIIIIIIIIIIIIIII2II2II2II2II1II1II1II1IIAIIAII
IIIIIIIIIIIIIIIIIIIIIIIIIIIIIIIIII2II2II2II2II1II11I11I11IA1IAAI
IIIIIIIIIIIIIIIIIIIIIIIIIIIIIIIIII22I22I22I22I11I11I11I11IAAIAAI
IIIIIIIIIIIIIIIIIIIIIIIIIIIIIII2II22I22I22I12I11I11I11IA1IAAIAAI
IIIIIIIIIIIIIIIIIIIIIIIIIIII2II2II22I22I12I12I11I11IA1IA1IAAIAAI
IIIIIIIIIIIIIIIIIIIIIIIIIIII2II22I22I22I12I11I11I11IA1IAAIAAIAAI
IIIIIIIIIIIIIIIIIIIIIIIII2II2II22I22I12I12I11I11IA1IA1IAAIAAIAAI
IIIIIIIIIIIIIIIIIIIIIIIII2II22I22I22I12I11I11I11IA1IAAIAAIAAIAAI
IIIIIIIIIIIIIIIIIIIIIIIII22I22I22I22I11I11I11I11IAAIAAIAAIAAIAAI
IIIIIIIIIIIIIIIIIIIIII2II22I22I22I12I11I11I11IA1IAAIAAIAAIAAIAAI
IIIIIIIIIIIIIIIIIII2II2II22I22I12I12I11I11IA1IA1IAAIAAIAAIAAIAAI
IIIIIIIIIIIIIIIIIII2II22I22I22I12I11I11I11IA1IAAIAAIAAIAAIAAIAAI
IIIIIIIIIIIIIIII2II2II22I22I12I12I11I11IA1IA1IAAIAAIAAIAAIAAIAAI
IIIIIIIIIIIIIIII2II22I22I22I12I11I11I11IA1IAAIAAIAAIAAIAAIAAIAAI
IIIIIIIIIIIII2II2II22I22I12I12I11I11IA1IA1IAAIAAIAAIAAIAAIAAIAAI
IIIIIIIIIIIII2II22I22I22I12I11I11I11IA1IAAIAAIAAIAAIAAIAAIAAIAAI
IIIIIIIIIIIII22I22I22I22I11I11I11I11IAAIAAIAAIAAIAAIAAIAAIAAIAAI
IIIIIIIIII2II22I22I22I12I11I11I11IA1IAAIAAIAAIAAIAAIAAIAAIAAIAAI
IIIIIII2II2II22I22I12I12I11I11IA1IA1IAAIAAIAAIAAIAAIAAIAAIAAIAAI
IIIIIII2II22I22I22I12I11I11I11IA1IAAIAAIAAIAAIAAIAAIAAIAAIAAIAAI
IIII2II2II22I22I12I12I11I11IA1IA1IAAIAAIAAIAAIAAIAAIAAIAAIAAIAAI
IIII2II22I22I22I12I11I11I11IA1IAAIAAIAAIAAIAAIAAIAAIAAIAAIAAIAAI
I2II2II22I22I12I12I11I11IA1IA1IAAIAAIAAIAAIAAIAAIAAIAAIAAIAAIAAI
I2II22I22I22I12I11I11I11IA1IAAIAAIAAIAAIAAIAAIAAIAAIAAIAAIAAIAAI
I22I22I22I22I11I11I11I11IAAIAAIAAIAAIAAIAAIAAIAAIAAIAAIAAIAAIAAI
I22I22I22I12I11I11I11IA1IAAIAAIAAIAAIAAIAAIAAIAAIAAIAAIAAIAAIAAI
I22I22I12I12I11I11IA1IA1IAAIAAIAAIAAIAAIAAIAAIAAIAAIAAIAAIAAIAAI
I22I22I12I11I11I11IA1IAAIAAIAAIAAIAAIAAIAAIAAIAAIAAIAAIAAIAAIAAI
I22I12I12I11I11IA1IA1IAAIAAIAAIAAIAAIAAIAAIAAIAAIAAIAAIAAIAAIAAI
I22I12I11I11I11IA1IAAIAAIAAIAAIAAIAAIAAIAAIAAIAAIAAIAAIAAIAAIAAI
I22I12I11I11IA1IA1IAAIAAIAAIAAIAAIAAIAAIAAIAAIAAIAAIAAIAAIAAIAAI
I22I12I11I11IA1IAAIAAIAAIAAIAAIAAIAAIAAIAAIAAIAAIAAIAAIAAIAAIAAI
I22I12I11IA1IA1IAAIAAIAAIAAIAAIAAIAAIAAIAAIAAIAAIAAIAAIAAIAAIAAI
I22I12I11IA1IAAIAAIAAIAAIAAIAAIAAIAAIAAIAAIAAIAAIAAIAAIAAIAAIAAI
I22I12IA1IA1IAAIAAIAAIAAIAAIAAIAAIAAIAAIAAIAAIAAIAAIAAIAAIAAIAAI
I22I12IA1IAAIAAIAAIAAIAAIAAIAAIAAIAAIAAIAAIAAIAAIAAIAAIAAIAAIAAI
I22IA2IA1IAAIAAIAAIAAIAAIAAIAAIAAIAAIAAIAAIAAIAAIAAIAAIAAIAAIAAI
I22IA2IAAIAAIAAIAAIAAIAAIAAIAAIAAIAAIAAIAAIAAIAAIAAIAAIAAIAAIAAI
IA2IA2IAAIAAIAAIAAIAAIAAIAAIAAIAAIAAIAAIAAIAAIAAIAAIAAIAAIAAIAAI
IA1IAAIAAIAAIAAIAAIAAIAAIAAIAAIAAIAAIAAIAAIAAIAAIAAIAAIAAIAAIAAI
IAAIAAIAAIAAIAAIAAIAAIAAIAAIAAIAAIAAIAAIAAIAAIAAIAAIAAIAAIAAIAAI
IIIIIIIIIIIIIIIIIIIIIIIIIIIIIIIIIIIIIIIIIIIIIIIIIIIIIII2IIII1AII
IIIIIIIIIIIIIIIIIIIIIIIIIIIIIIIIIIIIIIIIIIIIIIIIIIIIIII22III1AAI
IIIIIIIIIIIIIIIIIIIIIIIIIIIIIIIIIIIIIIIIIIIIIIIIIIII2II221AI1AAI
IIIIIIIIIIIIIIIIIIIIIIIIIIIIIIIIIIIIIIIIIIIIIIIIIIII22I221AA1AAI
IIIIIIIIIIIIIIIIIIIIIIIIIIIIIIIIIIIIIIIIIIIIIIIII2II221A21AA1AAI
IIIIIIIIIIIIIIIIIIIIIIIIIIIIIIIIIIIIIIIIIIIIIIIII22I221AA1AA1AAI
IIIIIIIIIIIIIIIIIIIIIIIIIIIIIIIIIIIIIIIIIIIIII2II221A21AA1AA1AAI
IIIIIIIIIIIIIIIIIIIIIIIIIIIIIIIIIIIIIIIIIIIIII22I221AA1AA1AA1AAI
IIIIIIIIIIIIIIIIIIIIIIIIIIIIIIIIIIIIIIIIIII2II221A21AA1AA1AA1AAI
IIIIIIIIIIIIIIIIIIIIIIIIIIIIIIIIIIIIIIII2II2I1A21A21AA1AA1AA1AAI
IIIIIIIIIIIIIIIIIIIIIIIIIIIIIIIIIIIIIIII2II221A21AA1AA1AA1AA1AAI
IIIIIIIIIIIIIIIIIIIIIIIIIIIIIIIIIIIII2II2I1A21A21AA1AA1AA1AA1AAI
IIIIIIIIIIIIIIIIIIIIIIIIIIIIIIIIIIIII2II221A21AA1AA1AA1AA1AA1AAI
IIIIIIIIIIIIIIIIIIIIIIIIIIIIIIIIIIIII22I221AA1AA1AA1AA1AA1AA1AAI
IIIIIIIIIIIIIIIIIIIIIIIIIIIIIIIIII2II221A21AA1AA1AA1AA1AA1AA1AAI
IIIIIIIIIIIIIIIIIIIIIIIIIIIIIII2II2I1A21A21AA1AA1AA1AA1AA1AA1AAI
IIIIIIIIIIIIIIIIIIIIIIIIIIIIIII2II221A21AA1AA1AA1AA1AA1AA1AA1AAI
IIIIIIIIIIIIIIIIIIIIIIIIIIII2II2I1A21A21AA1AA1AA1AA1AA1AA1AA1AAI
IIIIIIIIIIIIIIIIIIIIIIIIIIII2II221A21AA1AA1AA1AA1AA1AA1AA1AA1AAI
IIIIIIIIIIIIIIIIIIIIIIIIIIII22I221AA1AA1AA1AA1AA1AA1AA1AA1AA1AAI
IIIIIIIIIIIIIIIIIIIIIIIII2II221A21AA1AA1AA1AA1AA1AA1AA1AA1AA1AAI
IIIIIIIIIIIIIIIIIIIIIIIII22I221AA1AA1AA1AA1AA1AA1AA1AA1AA1AA1AAI
IIIIIIIIIIIIIIIIIIIIII2II221A21AA1AA1AA1AA1AA1AA1AA1AA1AA1AA1AAI
IIIIIIIIIIIIIIIIIIIIII22I221AA1AA1AA1AA1AA1AA1AA1AA1AA1AA1AA1AAI
IIIIIIIIIIIIIIIIIII2II221A21AA1AA1AA1AA1AA1AA1AA1AA1AA1AA1AA1AAI
IIIIIIIIIIIIIIIIIII22I221AA1AA1AA1AA1AA1AA1AA1AA1AA1AA1AA1AA1AAI
IIIIIIIIIIIIIIII2II221A21AA1AA1AA1AA1AA1AA1AA1AA1AA1AA1AA1AA1AAI
IIIIIIIIIIIIIIII22I221AA1AA1AA1AA1AA1AA1AA1AA1AA1AA1AA1AA1AA1AAI
IIIIIIIIIIIII2II221A21AA1AA1AA1AA1AA1AA1AA1AA1AA1AA1AA1AA1AA1AAI
IIIIIIIIII2II2I1A21A21AA1AA1AA1AA1AA1AA1AA1AA1AA1AA1AA1AA1AA1AAI
IIIIIIIIII2II221A21AA1AA1AA1AA1AA1AA1AA1AA1AA1AA1AA1AA1AA1AA1AAI
IIIIIIIIII22I221AA1AA1AA1AA1AA1AA1AA1AA1AA1AA1AA1AA1AA1AA1AA1AAI
IIIIIII2II221A21AA1AA1AA1AA1AA1AA1AA1AA1AA1AA1AA1AA1AA1AA1AA1AAI
IIIIIII22I221AA1AA1AA1AA1AA1AA1AA1AA1AA1AA1AA1AA1AA1AA1AA1AA1AAI
IIII2II221A21AA1AA1AA1AA1AA1AA1AA1AA1AA1AA1AA1AA1AA1AA1AA1AA1AAI
IIII22I221AA1AA1AA1AA1AA1AA1AA1AA1AA1AA1AA1AA1AA1AA1AA1AA1AA1AAI
I2II221A21AA1AA1AA1AA1AA1AA1AA1AA1AA1AA1AA1AA1AA1AA1AA1AA1AA1AAI
I2I1A21A21AA1AA1AA1AA1AA1AA1AA1AA1AA1AA1AA1AA1AA1AA1AA1AA1AA1AAI
1AI1A21A21AA1AA1AA1AA1AA1AA1AA1AA1AA1AA1AA1AA1AA1AA1AA1AA1AA1AAI
1AI1AA1A21AA1AA1AA1AA1AA1AA1AA1AA1AA1AA1AA1AA1AA1AA1AA1AA1AA1AAI
1AA1AA1A21AA1AA1AA1AA1AA1AA1AA1AA1AA1AA1AA1AA1AA1AA1AA1AA1AA1AAI
1AA1AA1AA1AA1AA1AA1AA1AA1AA1AA1AA1AA1AA1AA1AA1AA1AA1AA1AA1AA1AAI
IIIIIIIIIIIIIIIIIIIIIIIIIIIIIIIIIIIIIIIIIIIIIIIII2II2II2II2IIAII
IIIIIIIIIIIIIIIIIIIIIIIIIIIIIIIIIIIIIIIIIIIIIIIII22I22I22I22IAAI
IIIIIIIIIIIIIIIIIIIIIIIIIIIIIIIIIIIIIIIIIIIIII2II22I22I22IA2IAAI
IIIIIIIIIIIIIIIIIIIIIIIIIIIIIIIIIIIIIIIIIIIIII22I22I22I22IAAIAAI
IIIIIIIIIIIIIIIIIIIIIIIIIIIIIIIIIIIIIIIIIII2II22I22I22IA2IAAIAAI
IIIIIIIIIIIIIIIIIIIIIIIIIIIIIIIIIIIIIIIIIII22I22I22I22IAAIAAIAAI
IIIIIIIIIIIIIIIIIIIIIIIIIIIIIIIIIIIIIIII2II22I22I22IA2IAAIAAIAAI
IIIIIIIIIIIIIIIIIIIIIIIIIIIIIIIIIIIIIIII22I22I22I22IAAIAAIAAIAAI
IIIIIIIIIIIIIIIIIIIIIIIIIIIIIIIIIIIII2II22I22I22IA2IAAIAAIAAIAAI
IIIIIIIIIIIIIIIIIIIIIIIIIIIIIIIIIIIII22I22I22I22IAAIAAIAAIAAIAAI
IIIIIIIIIIIIIIIIIIIIIIIIIIIIIIIIII2II22I22I22IA2IAAIAAIAAIAAIAAI
IIIIIIIIIIIIIIIIIIIIIIIIIIIIIIIIII22I22I22I22IAAIAAIAAIAAIAAIAAI
IIIIIIIIIIIIIIIIIIIIIIIIIIIIIII2II22I22I22IA2IAAIAAIAAIAAIAAIAAI
IIIIIIIIIIIIIIIIIIIIIIIIIIII2II2II22I22IA2IA2IAAIAAIAAIAAIAAIAAI
IIIIIIIIIIIIIIIIIIIIIIIIIIII2II22I22I22IA2IAAIAAIAAIAAIAAIAAIAAI
IIIIIIIIIIIIIIIIIIIIIIIIIIII22I22I22I22IAAIAAIAAIAAIAAIAAIAAIAAI
IIIIIIIIIIIIIIIIIIIIIIIII2II22I22I22IA2IAAIAAIAAIAAIAAIAAIAAIAAI
IIIIIIIIIIIIIIIIIIIIIIIII22I22I22I22IAAIAAIAAIAAIAAIAAIAAIAAIAAI
IIIIIIIIIIIIIIIIIIIIII2II22I22I22IA2IAAIAAIAAIAAIAAIAAIAAIAAIAAI
IIIIIIIIIIIIIIIIIIIIII22I22I22I22IAAIAAIAAIAAIAAIAAIAAIAAIAAIAAI
IIIIIIIIIIIIIIIIIII2II22I22I22IA2IAAIAAIAAIAAIAAIAAIAAIAAIAAIAAI
IIIIIIIIIIIIIIIIIII22I22I22I22IAAIAAIAAIAAIAAIAAIAAIAAIAAIAAIAAI
IIIIIIIIIIIIIIII2II22I22I22IA2IAAIAAIAAIAAIAAIAAIAAIAAIAAIAAIAAI
IIIIIIIIIIIII2II2II22I22IA2IA2IAAIAAIAAIAAIAAIAAIAAIAAIAAIAAIAAI
IIIIIIIIIIIII2II22I22I22IA2IAAIAAIAAIAAIAAIAAIAAIAAIAAIAAIAAIAAI
IIIIIIIIIIIII22I22I22I22IAAIAAIAAIAAIAAIAAIAAIAAIAAIAAIAAIAAIAAI
IIIIIIIIII2II22I22I22IA2IAAIAAIAAIAAIAAIAAIAAIAAIAAIAAIAAIAAIAAI
IIIIIII2II2II22I22IA2IA2IAAIAAIAAIAAIAAIAAIAAIAAIAAIAAIAAIAAIAAI
IIIIIII2II22I22I22IA2IAAIAAIAAIAAIAAIAAIAAIAAIAAIAAIAAIAAIAAIAAI
IIII2II2II22I22IA2IA2IAAIAAIAAIAAIAAIAAIAAIAAIAAIAAIAAIAAIAAIAAI
IIII2II22I22I22IA2IAAIAAIAAIAAIAAIAAIAAIAAIAAIAAIAAIAAIAAIAAIAAI
IIII22I22I22I22IAAIAAIAAIAAIAAIAAIAAIAAIAAIAAIAAIAAIAAIAAIAAIAAI
I2II22I22I22IA2IAAIAAIAAIAAIAAIAAIAAIAAIAAIAAIAAIAAIAAIAAIAAIAAI
I22I22I22I22IAAIAAIAAIAAIAAIAAIAAIAAIAAIAAIAAIAAIAAIAAIAAIAAIAAI
I22I22I22IA2IAAIAAIAAIAAIAAIAAIAAIAAIAAIAAIAAIAAIAAIAAIAAIAAIAAI
[...]
I11I11I11I11I11IA1IA1IAAIAAIAAIAAIAAIAAIAAIAAIAAIAAIAAIAAIAAIAAI
I11I11I11I11I11IA1IAAIAAIAAIAAIAAIAAIAAIAAIAAIAAIAAIAAIAAIAAIAAI
I11I11I11I11IA1IA1IAAIAAIAAIAAIAAIAAIAAIAAIAAIAAIAAIAAIAAIAAIAAI
I11I11I11I11IA1IAAIAAIAAIAAIAAIAAIAAIAAIAAIAAIAAIAAIAAIAAIAAIAAI
I11I11I11IA1IA1IAAIAAIAAIAAIAAIAAIAAIAAIAAIAAIAAIAAIAAIAAIAAIAAI
I11I11I11IA1IAAIAAIAAIAAIAAIAAIAAIAAIAAIAAIAAIAAIAAIAAIAAIAAIAAI
I11I11I11IAAIAAIAAIAAIAAIAAIAAIAAIAAIAAIAAIAAIAAIAAIAAIAAIAAIAAI
I11I11IA1IAAIAAIAAIAAIAAIAAIAAIAAIAAIAAIAAIAAIAAIAAIAAIAAIAAIAAI
I11IA1IA1IAAIAAIAAIAAIAAIAAIAAIAAIAAIAAIAAIAAIAAIAAIAAIAAIAAIAAI
I11IA1IAAIAAIAAIAAIAAIAAIAAIAAIAAIAAIAAIAAIAAIAAIAAIAAIAAIAAIAAI
IA1IA1IAAIAAIAAIAAIAAIAAIAAIAAIAAIAAIAAIAAIAAIAAIAAIAAIAAIAAIAAI
IA1IAAIAAIAAIAAIAAIAAIAAIAAIAAIAAIAAIAAIAAIAAIAAIAAIAAIAAIAAIAAI
IAAIAAIAAIAAIAAIAAIAAIAAIAAIAAIAAIAAIAAIAAIAAIAAIAAIAAIAAIAAIAAI
IIIIIIIIIIIIIIIIIIIIIIIIIIIIIIIIIIIIIIIIIIIIIIIIIIIIIIIIIIII1AII
IIIIIIIIIIIIIIIIIIIIIIIIIIIIIIIIIIIIIIIIIIIIIIIIIIIIIIIIIIII1AAI
IIIIIIIIIIIIIIIIIIIIIIIIIIIIIIIIIIIIIIIIIIIIIIIIIIIIIIIII1AI1AAI
IIIIIIIIIIIIIIIIIIIIIIIIIIIIIIIIIIIIIIIIIIIIIIIIIIIIIIIII1AA1AAI
IIIIIIIIIIIIIIIIIIIIIIIIIIIIIIIIIIIIIIIIIIIIIIIIIIIIII1AI1AA1AAI
IIIIIIIIIIIIIIIIIIIIIIIIIIIIIIIIIIIIIIIIIIIIIIIIIIIIII1AA1AA1AAI
IIIIIIIIIIIIIIIIIIIIIIIIIIIIIIIIIIIIIIIIIIIIIIIIIII1AI1AA1AA1AAI
IIIIIIIIIIIIIIIIIIIIIIIIIIIIIIIIIIIIIIIIIIIIIIIIIII1AA1AA1AA1AAI
IIIIIIIIIIIIIIIIIIIIIIIIIIIIIIIIIIIIIIIIIIIIIIII1AI1AA1AA1AA1AAI
IIIIIIIIIIIIIIIIIIIIIIIIIIIIIIIIIIIIIIIIIIIIIIII1AA1AA1AA1AA1AAI
IIIIIIIIIIIIIIIIIIIIIIIIIIIIIIIIIIIIIIIIIIIII1AI1AA1AA1AA1AA1AAI
IIIIIIIIIIIIIIIIIIIIIIIIIIIIIIIIIIIIIIIIIIIII1AA1AA1AA1AA1AA1AAI
IIIIIIIIIIIIIIIIIIIIIIIIIIIIIIIIIIIIIIIIII1AI1AA1AA1AA1AA1AA1AAI
IIIIIIIIIIIIIIIIIIIIIIIIIIIIIIIIIIIIIIIIII1AA1AA1AA1AA1AA1AA1AAI
IIIIIIIIIIIIIIIIIIIIIIIIIIIIIIIIIIIIIII1AI1AA1AA1AA1AA1AA1AA1AAI
IIIIIIIIIIIIIIIIIIIIIIIIIIIIIIIIIIIIIII1AA1AA1AA1AA1AA1AA1AA1AAI
IIIIIIIIIIIIIIIIIIIIIIIIIIIIIIIIIIII1AI1AA1AA1AA1AA1AA1AA1AA1AAI
IIIIIIIIIIIIIIIIIIIIIIIIIIIIIIIIIIII1AA1AA1AA1AA1AA1AA1AA1AA1AAI
IIIIIIIIIIIIIIIIIIIIIIIIIIIIIIIII1AI1AA1AA1AA1AA1AA1AA1AA1AA1AAI
IIIIIIIIIIIIIIIIIIIIIIIIIIIIIIIII1AA1AA1AA1AA1AA1AA1AA1AA1AA1AAI
IIIIIIIIIIIIIIIIIIIIIIIIIIIIII1AI1AA1AA1AA1AA1AA1AA1AA1AA1AA1AAI
IIIIIIIIIIIIIIIIIIIIIIIIIIIIII1AA1AA1AA1AA1AA1AA1AA1AA1AA1AA1AAI
IIIIIIIIIIIIIIIIIIIIIIIIIII1AI1AA1AA1AA1AA1AA1AA1AA1AA1AA1AA1AAI
IIIIIIIIIIIIIIIIIIIIIIIIIII1AA1AA1AA1AA1AA1AA1AA1AA1AA1AA1AA1AAI
IIIIIIIIIIIIIIIIIIIIIIII1AI1AA1AA1AA1AA1AA1AA1AA1AA1AA1AA1AA1AAI
IIIIIIIIIIIIIIIIIIIIIIII1AA1AA1AA1AA1AA1AA1AA1AA1AA1AA1AA1AA1AAI
IIIIIIIIIIIIIIIIIIIII1AI1AA1AA1AA1AA1AA1AA1AA1AA1AA1AA1AA1AA1AAI
IIIIIIIIIIIIIIIIIIIII1AA1AA1AA1AA1AA1AA1AA1AA1AA1AA1AA1AA1AA1AAI
IIIIIIIIIIIIIIIIII1AI1AA1AA1AA1AA1AA1AA1AA1AA1AA1AA1AA1AA1AA1AAI
IIIIIIIIIIIIIIIIII1AA1AA1AA1AA1AA1AA1AA1AA1AA1AA1AA1AA1AA1AA1AAI
IIIIIIIIIIIIIII1AI1AA1AA1AA1AA1AA1AA1AA1AA1AA1AA1AA1AA1AA1AA1AAI
IIIIIIIIIIIIIII1AA1AA1AA1AA1AA1AA1AA1AA1AA1AA1AA1AA1AA1AA1AA1AAI
IIIIIIIIIIII1AI1AA1AA1AA1AA1AA1AA1AA1AA1AA1AA1AA1AA1AA1AA1AA1AAI
IIIIIIIIIIII1AA1AA1AA1AA1AA1AA1AA1AA1AA1AA1AA1AA1AA1AA1AA1AA1AAI
IIIIIIIII1AI1AA1AA1AA1AA1AA1AA1AA1AA1AA1AA1AA1AA1AA1AA1AA1AA1AAI
IIIIIIIII1AA1AA1AA1AA1AA1AA1AA1AA1AA1AA1AA1AA1AA1AA1AA1AA1AA1AAI
IIIIII1AI1AA1AA1AA1AA1AA1AA1AA1AA1AA1AA1AA1AA1AA1AA1AA1AA1AA1AAI
IIIIII1AA1AA1AA1AA1AA1AA1AA1AA1AA1AA1AA1AA1AA1AA1AA1AA1AA1AA1AAI
III1AI1AA1AA1AA1AA1AA1AA1AA1AA1AA1AA1AA1AA1AA1AA1AA1AA1AA1AA1AAI
III1AA1AA1AA1AA1AA1AA1AA1AA1AA1AA1AA1AA1AA1AA1AA1AA1AA1AA1AA1AAI
1AI1AA1AA1AA1AA1AA1AA1AA1AA1AA1AA1AA1AA1AA1AA1AA1AA1AA1AA1AA1AAI
1AA1AA1AA1AA1AA1AA1AA1AA1AA1AA1AA1AA1AA1AA1AA1AA1AA1AA1AA1AA1AAI
IIIIIIIIIIIIIIIIIIIIIIIIIIIIIIIIIIIIIIIIIIIIII1II1II1II1II1IIAII
IIIIIIIIIIIIIIIIIIIIIIIIIIIIIIIIIII1II1II1II1I11I11I11I11I11IAAI
IIIIIIIIIIIIIIIIIIIIIIIIIIIIIII1II11I11I11I11I11I11I11I11IA1IAAI
IIIIIIIIIIIIIIIIIIIIIIIIIIIIIII11I11I11I11I11I11I11I11I11IAAIAAI
IIIIIIIIIIIIIIIIIIIIIIIIIIII1II11I11I11I11I11I11I11I11IA1IAAIAAI
IIIIIIIIIIIIIIIIIIIIIIIIIIII11I11I11I11I11I11I11I11I11IAAIAAIAAI
IIIIIIIIIIIIIIIIIIIIIIIIIIII11I11I11I11I11I11I11I11IA1IAAIAAIAAI
IIIIIIIIIIIIIIIIIIIIIIIIIIII11I11I11I11I11I11I11IA1IA1IAAIAAIAAI
IIIIIIIIIIIIIIIIIIIIIIIIIIII11I11I11I11I11I11I11IA1IAAIAAIAAIAAI
IIIIIIIIIIIIIIIIIIIIIIIIIIII11I11I11I11I11I11I11IAAIAAIAAIAAIAAI
IIIIIIIIIIIIIIIIIIIIIIIIIIII11I11I11I11I11I11IA1IAAIAAIAAIAAIAAI
IIIIIIIIIIIIIIIIIIIIIIIIIIII11I11I11I11I11IA1IA1IAAIAAIAAIAAIAAI
IIIIIIIIIIIIIIIIIIIIIIIIIIII11I11I11I11I11IA1IAAIAAIAAIAAIAAIAAI
IIIIIIIIIIIIIIII1II1II1II1II11I11I11I11IA1IA1IAAIAAIAAIAAIAAIAAI
IIIIIIIIIIIIIIII1II1II1II1II11I11I11I11IA1IAAIAAIAAIAAIAAIAAIAAI
IIIIIIIIIIIIIIII1II1II1II1II11I11I11IA1IA1IAAIAAIAAIAAIAAIAAIAAI
IIIIIIIIIIIIIIII1II1II1II1II11I11I11IA1IAAIAAIAAIAAIAAIAAIAAIAAI
IIIIIIIIIIIIIIII1II11I11I11I11I11I11IAAIAAIAAIAAIAAIAAIAAIAAIAAI
IIIIIIIIII1II1II1II11I11I11I11I11IA1IAAIAAIAAIAAIAAIAAIAAIAAIAAI
IIII1II1II1II1II1II11I11I11I11IA1IA1IAAIAAIAAIAAIAAIAAIAAIAAIAAI
IIII1II1II1II1II11I11I11I11I11IA1IAAIAAIAAIAAIAAIAAIAAIAAIAAIAAI
I1II1II1II1II1II11I11I11I11IA1IA1IAAIAAIAAIAAIAAIAAIAAIAAIAAIAAI
I1II1II1II1II1II11I11I11I11IA1IAAIAAIAAIAAIAAIAAIAAIAAIAAIAAIAAI
I1II1II1II1II1II11I11I11IA1IA1IAAIAAIAAIAAIAAIAAIAAIAAIAAIAAIAAI
I1II1II11I11I11I11I11I11IA1IAAIAAIAAIAAIAAIAAIAAIAAIAAIAAIAAIAAI
I1II1II11I11I11I11I11IA1IA1IAAIAAIAAIAAIAAIAAIAAIAAIAAIAAIAAIAAI
I11I11I11I11I11I11I11IA1IAAIAAIAAIAAIAAIAAIAAIAAIAAIAAIAAIAAIAAI
I11I11I11I11I11I11IA1IA1IAAIAAIAAIAAIAAIAAIAAIAAIAAIAAIAAIAAIAAI
I11I11I11I11I11I11IA1IAAIAAIAAIAAIAAIAAIAAIAAIAAIAAIAAIAAIAAIAAI
I11I11I11I11I11I11IAAIAAIAAIAAIAAIAAIAAIAAIAAIAAIAAIAAIAAIAAIAAI
I11I11I11I11I11IA1IAAIAAIAAIAAIAAIAAIAAIAAIAAIAAIAAIAAIAAIAAIAAI
I11I11I11I11IA1IA1IAAIAAIAAIAAIAAIAAIAAIAAIAAIAAIAAIAAIAAIAAIAAI
I11I11I11I11IA1IAAIAAIAAIAAIAAIAAIAAIAAIAAIAAIAAIAAIAAIAAIAAIAAI
I11I11I11IA1IA1IAAIAAIAAIAAIAAIAAIAAIAAIAAIAAIAAIAAIAAIAAIAAIAAI
I11I11I11IA1IAAIAAIAAIAAIAAIAAIAAIAAIAAIAAIAAIAAIAAIAAIAAIAAIAAI
I11I11IA1IA1IAAIAAIAAIAAIAAIAAIAAIAAIAAIAAIAAIAAIAAIAAIAAIAAIAAI
I11I11IA1IAAIAAIAAIAAIAAIAAIAAIAAIAAIAAIAAIAAIAAIAAIAAIAAIAAIAAI
I11IA1IA1IAAIAAIAAIAAIAAIAAIAAIAAIAAIAAIAAIAAIAAIAAIAAIAAIAAIAAI
I11IA1IAAIAAIAAIAAIAAIAAIAAIAAIAAIAAIAAIAAIAAIAAIAAIAAIAAIAAIAAI
IA1IA1IAAIAAIAAIAAIAAIAAIAAIAAIAAIAAIAAIAAIAAIAAIAAIAAIAAIAAIAAI
IA1IAAIAAIAAIAAIAAIAAIAAIAAIAAIAAIAAIAAIAAIAAIAAIAAIAAIAAIAAIAAI
IAAIAAIAAIAAIAAIAAIAAIAAIAAIAAIAAIAAIAAIAAIAAIAAIAAIAAIAAIAAIAAI
IIIIIIIIIIIIIIIIIIIIIIIIIIIIIIIIIIIII1II1II1II1II1II1II1II1IIAII
IIIIIIIIIIIIIIIIIIIIIIIIIIIIIIIIIIIII11I11I11I11I11I11I11I11IAAI
IIIIIIIIIIIIIIIIIIIIIIIIIIIIIIIIII1II11I11I11I11I11I11I11IA1IAAI
IIIIIIIIIIIIIIIIIIIIIIIIIIIIIII1II1II11I11I11I11I11I11IA1IA1IAAI
IIIIIIIIIIIIIIIIIIIIIIIIIIIIIII1II11I11I11I11I11I11I11IA1IAAIAAI
IIIIIIIIIIIIIIIIIIIIIIIIIIII1II1II11I11I11I11I11I11IA1IA1IAAIAAI
IIIIIIIIIIIIIIIIIIIIIIIIIIII1II11I11I11I11I11I11I11IA1IAAIAAIAAI
IIIIIIIIIIIIIIIIIIIIIIIII1II1II11I11I11I11I11I11IA1IA1IAAIAAIAAI
IIIIIIIIIIIIIIIIIIIIIIIII1II11I11I11I11I11I11I11IA1IAAIAAIAAIAAI
IIIIIIIIIIIIIIIIIIIIII1II1II11I11I11I11I11I11IA1IA1IAAIAAIAAIAAI
IIIIIIIIIIIIIIIIIIIIII1II11I11I11I11I11I11I11IA1IAAIAAIAAIAAIAAI
IIIIIIIIIIIIIIIIIII1II1II11I11I11I11I11I11IA1IA1IAAIAAIAAIAAIAAI
IIIIIIIIIIIIIIIIIII1II11I11I11I11I11I11I11IA1IAAIAAIAAIAAIAAIAAI
IIIIIIIIIIIIIIIIIII11I11I11I11I11I11I11I11IAAIAAIAAIAAIAAIAAIAAI
IIIIIIIIIIIIIIII1II11I11I11I11I11I11I11IA1IAAIAAIAAIAAIAAIAAIAAI
IIIIIIIIIIIII1II1II11I11I11I11I11I11IA1IA1IAAIAAIAAIAAIAAIAAIAAI
IIIIIIIIIIIII1II11I11I11I11I11I11I11IA1IAAIAAIAAIAAIAAIAAIAAIAAI
IIIIIIIIIIIII11I11I11I11I11I11I11I11IAAIAAIAAIAAIAAIAAIAAIAAIAAI
IIIIIIIIII1II11I11I11I11I11I11I11IA1IAAIAAIAAIAAIAAIAAIAAIAAIAAI
IIIIIII1II1II11I11I11I11I11I11IA1IA1IAAIAAIAAIAAIAAIAAIAAIAAIAAI
IIIIIII1II11I11I11I11I11I11I11IA1IAAIAAIAAIAAIAAIAAIAAIAAIAAIAAI
IIII1II1II11I11I11I11I11I11IA1IA1IAAIAAIAAIAAIAAIAAIAAIAAIAAIAAI
IIII1II11I11I11I11I11I11I11IA1IAAIAAIAAIAAIAAIAAIAAIAAIAAIAAIAAI
I1II1II11I11I11I11I11I11IA1IA1IAAIAAIAAIAAIAAIAAIAAIAAIAAIAAIAAI
I1II11I11I11I11I11I11I11IA1IAAIAAIAAIAAIAAIAAIAAIAAIAAIAAIAAIAAI
I1II11I11I11I11I11I11IA1IA1IAAIAAIAAIAAIAAIAAIAAIAAIAAIAAIAAIAAI
I11I11I11I11I11I11I11IA1IAAIAAIAAIAAIAAIAAIAAIAAIAAIAAIAAIAAIAAI
I11I11I11I11I11I11IA1IA1IAAIAAIAAIAAIAAIAAIAAIAAIAAIAAIAAIAAIAAI
I11I11I11I11I11I11IA1IAAIAAIAAIAAIAAIAAIAAIAAIAAIAAIAAIAAIAAIAAI
I11I11I11I11I11IA1IA1IAAIAAIAAIAAIAAIAAIAAIAAIAAIAAIAAIAAIAAIAAI
I11I11I11I11I11IA1IAAIAAIAAIAAIAAIAAIAAIAAIAAIAAIAAIAAIAAIAAIAAI
I11I11I11I11I11IAAIAAIAAIAAIAAIAAIAAIAAIAAIAAIAAIAAIAAIAAIAAIAAI
I11I11I11I11IA1IAAIAAIAAIAAIAAIAAIAAIAAIAAIAAIAAIAAIAAIAAIAAIAAI
I11I11I11IA1IA1IAAIAAIAAIAAIAAIAAIAAIAAIAAIAAIAAIAAIAAIAAIAAIAAI
I11I11I11IA1IAAIAAIAAIAAIAAIAAIAAIAAIAAIAAIAAIAAIAAIAAIAAIAAIAAI
I11I11IA1IA1IAAIAAIAAIAAIAAIAAIAAIAAIAAIAAIAAIAAIAAIAAIAAIAAIAAI
I11I11IA1IAAIAAIAAIAAIAAIAAIAAIAAIAAIAAIAAIAAIAAIAAIAAIAAIAAIAAI
I11I11IAAIAAIAAIAAIAAIAAIAAIAAIAAIAAIAAIAAIAAIAAIAAIAAIAAIAAIAAI
I11IA1IAAIAAIAAIAAIAAIAAIAAIAAIAAIAAIAAIAAIAAIAAIAAIAAIAAIAAIAAI
IA1IA1IAAIAAIAAIAAIAAIAAIAAIAAIAAIAAIAAIAAIAAIAAIAAIAAIAAIAAIAAI
IA1IAAIAAIAAIAAIAAIAAIAAIAAIAAIAAIAAIAAIAAIAAIAAIAAIAAIAAIAAIAAI
IAAIAAIAAIAAIAAIAAIAAIAAIAAIAAIAAIAAIAAIAAIAAIAAIAAIAAIAAIAAIAAI
IIIIIIIIIIIIIIIIIIIIIIIIIIIIIIIIII1II1II1II1II1II1II1II1II1IIAII
IIIIIIIIIIIIIIIIIIIIIIIIIIIIIIIIII11I11I11I11I11I11I11I11I11IAAI
IIIIIIIIIIIIIIIIIIIIIIIIIIIIIII1II11I11I11I11I11I11I11I11IA1IAAI
IIIIIIIIIIIIIIIIIIIIIIIIIIIIIII11I11I11I11I11I11I11I11I11IAAIAAI
IIIIIIIIIIIIIIIIIIIIIIIIIIII1II11I11I11I11I11I11I11I11IA1IAAIAAI
IIIIIIIIIIIIIIIIIIIIIIIII1II1II11I11I11I11I11I11I11IA1IA1IAAIAAI
IIIIIIIIIIIIIIIIIIIIIIIII1II11I11I11I11I11I11I11I11IA1IAAIAAIAAI
IIIIIIIIIIIIIIIIIIIIIIIII11I11I11I11I11I11I11I11I11IAAIAAIAAIAAI
IIIIIIIIIIIIIIIIIIIIII1II11I11I11I11I11I11I11I11IA1IAAIAAIAAIAAI
IIIIIIIIIIIIIIIIIII1II1II11I11I11I11I11I11I11IA1IA1IAAIAAIAAIAAI
IIIIIIIIIIIIIIIIIII1II11I11I11I11I11I11I11I11IA1IAAIAAIAAIAAIAAI
IIIIIIIIIIIIIIII1II1II11I11I11I11I11I11I11IA1IA1IAAIAAIAAIAAIAAI
IIIIIIIIIIIIIIII1II11I11I11I11I11I11I11I11IA1IAAIAAIAAIAAIAAIAAI
IIIIIIIIIIIII1II1II11I11I11I11I11I11I11IA1IA1IAAIAAIAAIAAIAAIAAI
IIIIIIIIIIIII1II11I11I11I11I11I11I11I11IA1IAAIAAIAAIAAIAAIAAIAAI
IIIIIIIIII1II1II11I11I11I11I11I11I11IA1IA1IAAIAAIAAIAAIAAIAAIAAI
IIIIIIIIII1II11I11I11I11I11I11I11I11IA1IAAIAAIAAIAAIAAIAAIAAIAAI
IIIIIII1II1II11I11I11I11I11I11I11IA1IA1IAAIAAIAAIAAIAAIAAIAAIAAI
IIIIIII1II11I11I11I11I11I11I11I11IA1IAAIAAIAAIAAIAAIAAIAAIAAIAAI
IIII1II1II11I11I11I11I11I11I11IA1IA1IAAIAAIAAIAAIAAIAAIAAIAAIAAI
IIII1II11I11I11I11I11I11I11I11IA1IAAIAAIAAIAAIAAIAAIAAIAAIAAIAAI
I1II1II11I11I11I11I11I11I11IA1IA1IAAIAAIAAIAAIAAIAAIAAIAAIAAIAAI
I1II11I11I11I11I11I11I11I11IA1IAAIAAIAAIAAIAAIAAIAAIAAIAAIAAIAAI
I1II11I11I11I11I11I11I11IA1IA1IAAIAAIAAIAAIAAIAAIAAIAAIAAIAAIAAI
I11I11I11I11I11I11I11I11IA1IAAIAAIAAIAAIAAIAAIAAIAAIAAIAAIAAIAAI
I11I11I11I11I11I11I11I11IAAIAAIAAIAAIAAIAAIAAIAAIAAIAAIAAIAAIAAI
I11I11I11I11I11I11I11IA1IAAIAAIAAIAAIAAIAAIAAIAAIAAIAAIAAIAAIAAI
I11I11I11I11I11I11IA1IA1IAAIAAIAAIAAIAAIAAIAAIAAIAAIAAIAAIAAIAAI
I11I11I11I11I11I11IA1IAAIAAIAAIAAIAAIAAIAAIAAIAAIAAIAAIAAIAAIAAI
I11I11I11I11I11IA1IA1IAAIAAIAAIAAIAAIAAIAAIAAIAAIAAIAAIAAIAAIAAI
I11I11I11I11I11IA1IAAIAAIAAIAAIAAIAAIAAIAAIAAIAAIAAIAAIAAIAAIAAI
I11I11I11I11I11IAAIAAIAAIAAIAAIAAIAAIAAIAAIAAIAAIAAIAAIAAIAAIAAI
I11I11I11I11IA1IAAIAAIAAIAAIAAIAAIAAIAAIAAIAAIAAIAAIAAIAAIAAIAAI
I11I11I11IA1IA1IAAIAAIAAIAAIAAIAAIAAIAAIAAIAAIAAIAAIAAIAAIAAIAAI
I11I11I11IA1IAAIAAIAAIAAIAAIAAIAAIAAIAAIAAIAAIAAIAAIAAIAAIAAIAAI
I11I11I11IAAIAAIAAIAAIAAIAAIAAIAAIAAIAAIAAIAAIAAIAAIAAIAAIAAIAAI
I11I11IA1IAAIAAIAAIAAIAAIAAIAAIAAIAAIAAIAAIAAIAAIAAIAAIAAIAAIAAI
I11I11IAAIAAIAAIAAIAAIAAIAAIAAIAAIAAIAAIAAIAAIAAIAAIAAIAAIAAIAAI
I11IA1IAAIAAIAAIAAIAAIAAIAAIAAIAAIAAIAAIAAIAAIAAIAAIAAIAAIAAIAAI
IA1IA1IAAIAAIAAIAAIAAIAAIAAIAAIAAIAAIAAIAAIAAIAAIAAIAAIAAIAAIAAI
IA1IAAIAAIAAIAAIAAIAAIAAIAAIAAIAAIAAIAAIAAIAAIAAIAAIAAIAAIAAIAAI
IAAIAAIAAIAAIAAIAAIAAIAAIAAIAAIAAIAAIAAIAAIAAIAAIAAIAAIAAIAAIAAI
IIIIIIIIIIIIIIIIIIIIIIIIIIIIIIIIIIIII1II1II1II1II1II1II1II1IIAII
IIIIIIIIIIIIIIIIIIIIIIIIIIIIIIIIII1II1II1II1II1II1II1II1IIAIIAII
IIIIIIIIIIIIIIIIIIIIIIIIIIIIIIIIII1II11I11I11I11I11I11I11IA1IAAI
IIIIIIIIIIIIIIIIIIIIIIIIIIIIIII1II1II11I11I11I11I11I11IA1IA1IAAI
IIIIIIIIIIIIIIIIIIIIIIIIIIIIIII1II11I11I11I11I11I11I11IA1IAAIAAI
IIIIIIIIIIIIIIIIIIIIIIIIIIII1II1II11I11I11I11I11I11IA1IA1IAAIAAI
IIIIIIIIIIIIIIIIIIIIIIIIIIII1II11I11I11I11I11I11I11IA1IAAIAAIAAI
IIIIIIIIIIIIIIIIIIIIIIIII1II1II11I11I11I11I11I11IA1IA1IAAIAAIAAI
IIIIIIIIIIIIIIIIIIIIIIIII1II11I11I11I11I11I11I11IA1IAAIAAIAAIAAI
IIIIIIIIIIIIIIIIIIIIII1II1II11I11I11I11I11I11IA1IA1IAAIAAIAAIAAI
IIIIIIIIIIIIIIIIIIIIII1II11I11I11I11I11I11I11IA1IAAIAAIAAIAAIAAI
IIIIIIIIIIIIIIIIIII1II1II11I11I11I11I11I11IA1IA1IAAIAAIAAIAAIAAI
IIIIIIIIIIIIIIIIIII1II11I11I11I11I11I11I11IA1IAAIAAIAAIAAIAAIAAI
IIIIIIIIIIIIIIII1II1II11I11I11I11I11I11IA1IA1IAAIAAIAAIAAIAAIAAI
IIIIIIIIIIIIIIII1II11I11I11I11I11I11I11IA1IAAIAAIAAIAAIAAIAAIAAI
IIIIIIIIIIIII1II1II11I11I11I11I11I11IA1IA1IAAIAAIAAIAAIAAIAAIAAI
IIIIIIIIIIIII1II11I11I11I11I11I11I11IA1IAAIAAIAAIAAIAAIAAIAAIAAI
IIIIIIIIIIIII11I11I11I11I11I11I11I11IAAIAAIAAIAAIAAIAAIAAIAAIAAI
IIIIIIIIII1II11I11I11I11I11I11I11IA1IAAIAAIAAIAAIAAIAAIAAIAAIAAI
IIIIIII1II1II11I11I11I11I11I11IA1IA1IAAIAAIAAIAAIAAIAAIAAIAAIAAI
IIIIIII1II11I11I11I11I11I11I11IA1IAAIAAIAAIAAIAAIAAIAAIAAIAAIAAI
IIII1II1II11I11I11I11I11I11IA1IA1IAAIAAIAAIAAIAAIAAIAAIAAIAAIAAI
IIII1II11I11I11I11I11I11I11IA1IAAIAAIAAIAAIAAIAAIAAIAAIAAIAAIAAI
I1II1II11I11I11I11I11I11IA1IA1IAAIAAIAAIAAIAAIAAIAAIAAIAAIAAIAAI
I1II11I11I11I11I11I11I11IA1IAAIAAIAAIAAIAAIAAIAAIAAIAAIAAIAAIAAI
I1II11I11I11I11I11I11IA1IA1IAAIAAIAAIAAIAAIAAIAAIAAIAAIAAIAAIAAI
I11I11I11I11I11I11I11IA1IAAIAAIAAIAAIAAIAAIAAIAAIAAIAAIAAIAAIAAI
I11I11I11I11I11I11I11IAAIAAIAAIAAIAAIAAIAAIAAIAAIAAIAAIAAIAAIAAI
I11I11I11I11I11I11IA1IAAIAAIAAIAAIAAIAAIAAIAAIAAIAAIAAIAAIAAIAAI
I11I11I11I11I11IA1IA1IAAIAAIAAIAAIAAIAAIAAIAAIAAIAAIAAIAAIAAIAAI
I11I11I11I11I11IA1IAAIAAIAAIAAIAAIAAIAAIAAIAAIAAIAAIAAIAAIAAIAAI
I11I11I11I11IA1IA1IAAIAAIAAIAAIAAIAAIAAIAAIAAIAAIAAIAAIAAIAAIAAI
I11I11I11I11IA1IAAIAAIAAIAAIAAIAAIAAIAAIAAIAAIAAIAAIAAIAAIAAIAAI
I11I11I11IA1IA1IAAIAAIAAIAAIAAIAAIAAIAAIAAIAAIAAIAAIAAIAAIAAIAAI
I11I11I11IA1IAAIAAIAAIAAIAAIAAIAAIAAIAAIAAIAAIAAIAAIAAIAAIAAIAAI
I11I11IA1IA1IAAIAAIAAIAAIAAIAAIAAIAAIAAIAAIAAIAAIAAIAAIAAIAAIAAI
I11I11IA1IAAIAAIAAIAAIAAIAAIAAIAAIAAIAAIAAIAAIAAIAAIAAIAAIAAIAAI
I11IA1IA1IAAIAAIAAIAAIAAIAAIAAIAAIAAIAAIAAIAAIAAIAAIAAIAAIAAIAAI
I11IA1IAAIAAIAAIAAIAAIAAIAAIAAIAAIAAIAAIAAIAAIAAIAAIAAIAAIAAIAAI
IA1IA1IAAIAAIAAIAAIAAIAAIAAIAAIAAIAAIAAIAAIAAIAAIAAIAAIAAIAAIAAI
IA1IAAIAAIAAIAAIAAIAAIAAIAAIAAIAAIAAIAAIAAIAAIAAIAAIAAIAAIAAIAAI
IAAIAAIAAIAAIAAIAAIAAIAAIAAIAAIAAIAAIAAIAAIAAIAAIAAIAAIAAIAAIAAI
IIIIIIIIIIIIIIIIIIIIIIIIIIIIIIIIIIIII2II2II2II1II1II1II1II1IIAII
IIIIIIIIIIIIIIIIIIIIIIIIIIIIIIIIIIIII22I22I22I11I11I11I11I11IAAI
IIIIIIIIIIIIIIIIIIIIIIIIIIIIIIIIII2II22I22I12I11I11I11I11IA1IAAI
IIIIIIIIIIIIIIIIIIIIIIIIIIIIIIIIII22I22I22I11I11I11I11I11IAAIAAI
IIIIIIIIIIIIIIIIIIIIIIIIIIIIIIIIII22I22I22I11I11I11I11IA1IAAIAAI
IIIIIIIIIIIIIIIIIIIIIIIIIIIIIIIIII22I22I22I11I11I11I11IAAIAAIAAI
IIIIIIIIIIIIIIIIIIIIIIIIIIII2II2II22I12I12I11I11I11IA1IAAIAAIAAI
IIIIIIIIIIIIIIIIIIIIIIIIIIII22I22I22I11I11I11I11I11IAAIAAIAAIAAI
IIIIIIIIIIIIIIIIIIIIIIIII2II22I22I12I11I11I11I11IA1IAAIAAIAAIAAI
IIIIIIIIIIIIIIIIIIIIIIIII22I22I22I11I11I11I11I11IAAIAAIAAIAAIAAI
IIIIIIIIIIIIIIIIIIIIII2II22I22I12I11I11I11I11IA1IAAIAAIAAIAAIAAI
IIIIIIIIIIIIIIIIIIIIII22I22I22I11I11I11I11I11IAAIAAIAAIAAIAAIAAI
IIIIIIIIIIIIIIIIIII2II22I22I12I11I11I11I11IA1IAAIAAIAAIAAIAAIAAI
IIIIIIIIIIIIIIIIIII22I22I22I11I11I11I11I11IAAIAAIAAIAAIAAIAAIAAI
IIIIIIIIIIIIIIII2II22I22I12I11I11I11I11IA1IAAIAAIAAIAAIAAIAAIAAI
IIIIIIIIIIIIIIII22I22I22I11I11I11I11I11IAAIAAIAAIAAIAAIAAIAAIAAI
IIIIIIIIIIIII2II22I22I12I11I11I11I11IA1IAAIAAIAAIAAIAAIAAIAAIAAI
IIIIIIIIIIIII22I22I22I11I11I11I11I11IAAIAAIAAIAAIAAIAAIAAIAAIAAI
IIIIIIIIII2II22I22I12I11I11I11I11IA1IAAIAAIAAIAAIAAIAAIAAIAAIAAI
IIIIIIIIII22I22I22I11I11I11I11I11IAAIAAIAAIAAIAAIAAIAAIAAIAAIAAI
IIIIIII2II22I22I12I11I11I11I11IA1IAAIAAIAAIAAIAAIAAIAAIAAIAAIAAI
IIIIIII22I22I22I11I11I11I11I11IAAIAAIAAIAAIAAIAAIAAIAAIAAIAAIAAI
IIII2II22I22I12I11I11I11I11IA1IAAIAAIAAIAAIAAIAAIAAIAAIAAIAAIAAI
IIII22I22I22I11I11I11I11I11IAAIAAIAAIAAIAAIAAIAAIAAIAAIAAIAAIAAI
I2II22I22I12I11I11I11I11IA1IAAIAAIAAIAAIAAIAAIAAIAAIAAIAAIAAIAAI
I22I22I22I11I11I11I11I11IAAIAAIAAIAAIAAIAAIAAIAAIAAIAAIAAIAAIAAI
I22I22I12I11I11I11I11IA1IAAIAAIAAIAAIAAIAAIAAIAAIAAIAAIAAIAAIAAI
I22I22I11I11I11I11I11IAAIAAIAAIAAIAAIAAIAAIAAIAAIAAIAAIAAIAAIAAI
I22I12I11I11I11I11IA1IAAIAAIAAIAAIAAIAAIAAIAAIAAIAAIAAIAAIAAIAAI
I22I11I11I11I11I11IAAIAAIAAIAAIAAIAAIAAIAAIAAIAAIAAIAAIAAIAAIAAI
I12I11I11I11I11IA1IAAIAAIAAIAAIAAIAAIAAIAAIAAIAAIAAIAAIAAIAAIAAI
I11I11I11I11I11IAAIAAIAAIAAIAAIAAIAAIAAIAAIAAIAAIAAIAAIAAIAAIAAI
I11I11I11I11IA1IAAIAAIAAIAAIAAIAAIAAIAAIAAIAAIAAIAAIAAIAAIAAIAAI
I11I11I11I11IAAIAAIAAIAAIAAIAAIAAIAAIAAIAAIAAIAAIAAIAAIAAIAAIAAI
I11I11I11IA1IAAIAAIAAIAAIAAIAAIAAIAAIAAIAAIAAIAAIAAIAAIAAIAAIAAI
I11I11I11IAAIAAIAAIAAIAAIAAIAAIAAIAAIAAIAAIAAIAAIAAIAAIAAIAAIAAI
I11I11IA1IAAIAAIAAIAAIAAIAAIAAIAAIAAIAAIAAIAAIAAIAAIAAIAAIAAIAAI
I11I11IAAIAAIAAIAAIAAIAAIAAIAAIAAIAAIAAIAAIAAIAAIAAIAAIAAIAAIAAI
I11IA1IAAIAAIAAIAAIAAIAAIAAIAAIAAIAAIAAIAAIAAIAAIAAIAAIAAIAAIAAI
I11IAAIAAIAAIAAIAAIAAIAAIAAIAAIAAIAAIAAIAAIAAIAAIAAIAAIAAIAAIAAI
IA1IAAIAAIAAIAAIAAIAAIAAIAAIAAIAAIAAIAAIAAIAAIAAIAAIAAIAAIAAIAAI
IAAIAAIAAIAAIAAIAAIAAIAAIAAIAAIAAIAAIAAIAAIAAIAAIAAIAAIAAIAAIAAI
[MLOP] Prefetch Degree Mean: 2.63031
[MLOP] Prefetch Degree SD: 2.642
[MLOP] Max Score Left Mean (%): 18.1821
[MLOP] Max Score Left SD (%): 10.4929
[MLOP] Max Score Right Mean (%): 52.23
[MLOP] Max Score Right SD (%): 11.0329

DRAM Statistics
 CHANNEL 0
 RQ ROW_BUFFER_HIT:    7065011  ROW_BUFFER_MISS:   26756395
 DBUS_CONGESTED:        923
 WQ ROW_BUFFER_HIT:     189151  ROW_BUFFER_MISS:    9646128  FULL:          0

 AVG_CONGESTED_CYCLE: 5
 All warmup complete: 5
Channel 0 Bank busy for read cycles: 0
Channel 0 Bank busy for write cycles: 0
Channel 0
Rank 0
0banks busy for read cycles: 1002329578
0banks busy for write cycles: 86191
1banks busy for read cycles: 23649035
1banks busy for write cycles: 10219326
2banks busy for read cycles: 34017360
2banks busy for write cycles: 7775889
3banks busy for read cycles: 43543518
3banks busy for write cycles: 6582142
4banks busy for read cycles: 60266796
4banks busy for write cycles: 5697734
5banks busy for read cycles: 76095968
5banks busy for write cycles: 5531639
6banks busy for read cycles: 103082942
6banks busy for write cycles: 10821041
7banks busy for read cycles: 141785429
7banks busy for write cycles: 59999000
8banks busy for read cycles: 280900100
8banks busy for write cycles: 216237520

CPU 0 Branch Prediction Accuracy: 98.2876% MPKI: 1.55561 Average ROB Occupancy at Mispredict: 99.0513
Branch types
NOT_BRANCH: 183140696 90.9113%
BRANCH_DIRECT_JUMP: 410814 0.203929%
BRANCH_INDIRECT: 0 0%
BRANCH_CONDITIONAL: 17488068 8.6811%
BRANCH_DIRECT_CALL: 205348 0.101935%
BRANCH_INDIRECT_CALL: 0 0%
BRANCH_RETURN: 205348 0.101935%
BRANCH_OTHER: 0 0%


CPU 1 Branch Prediction Accuracy: 98.2868% MPKI: 1.55701 Average ROB Occupancy at Mispredict: 99.0552
Branch types
NOT_BRANCH: 183199871 90.9112%
BRANCH_DIRECT_JUMP: 410952 0.203931%
BRANCH_INDIRECT: 0 0%
BRANCH_CONDITIONAL: 17493765 8.68112%
BRANCH_DIRECT_CALL: 205417 0.101936%
BRANCH_INDIRECT_CALL: 0 0%
BRANCH_RETURN: 205417 0.101936%
BRANCH_OTHER: 0 0%


CPU 2 Branch Prediction Accuracy: 98.2759% MPKI: 1.56751 Average ROB Occupancy at Mispredict: 99.2951
Branch types
NOT_BRANCH: 181811890 90.9059%
BRANCH_DIRECT_JUMP: 407734 0.203867%
BRANCH_INDIRECT: 0 0%
BRANCH_CONDITIONAL: 17372949 8.68647%
BRANCH_DIRECT_CALL: 203808 0.101904%
BRANCH_INDIRECT_CALL: 0 0%
BRANCH_RETURN: 203808 0.101904%
BRANCH_OTHER: 0 0%


CPU 3 Branch Prediction Accuracy: 98.2885% MPKI: 1.55543 Average ROB Occupancy at Mispredict: 99.0898
Branch types
NOT_BRANCH: 183428837 90.9118%
BRANCH_DIRECT_JUMP: 411481 0.20394%
BRANCH_INDIRECT: 0 0%
BRANCH_CONDITIONAL: 17513761 8.68025%
BRANCH_DIRECT_CALL: 205682 0.101941%
BRANCH_INDIRECT_CALL: 0 0%
BRANCH_RETURN: 205681 0.101941%
BRANCH_OTHER: 0 0%

DRAM PAGES: 1048576
Allocated PAGES: 1048576
