
*** ChampSim Multicore Out-of-Order Simulator ***

Warmup Instructions: 50000000
Simulation Instructions: 200000000
Number of CPUs: 4
LLC sets: 8192
LLC ways: 16
Off-chip DRAM Size: 4096 MB Channels: 1 Width: 64-bit Data Rate: 6400 MT/s
CPU 0 runs ./traces/spec/603.bwaves_s-2931B.champsimtrace.xz
.xz
CPU 1 runs ./traces/spec/603.bwaves_s-2931B.champsimtrace.xz
.xz
CPU 2 runs ./traces/spec/603.bwaves_s-2931B.champsimtrace.xz
.xz
CPU 3 runs ./traces/spec/603.bwaves_s-2931B.champsimtrace.xz
.xz
BTB has LRU replacement policy
ITLB has LRU replacement policy
DTLB has LRU replacement policy
STLB has LRU replacement policy
L1I has LRU replacement policy
L1D has LRU replacement policy
Initialize SRRIP state for L2C
Initialize DRRIP state for LLC
BTB has LRU replacement policy
ITLB has LRU replacement policy
DTLB has LRU replacement policy
STLB has LRU replacement policy
L1I has LRU replacement policy
L1D has LRU replacement policy
Initialize SRRIP state for L2C
Initialize DRRIP state for LLC
BTB has LRU replacement policy
ITLB has LRU replacement policy
DTLB has LRU replacement policy
STLB has LRU replacement policy
L1I has LRU replacement policy
L1D has LRU replacement policy
Initialize SRRIP state for L2C
Initialize DRRIP state for LLC
BTB has LRU replacement policy
ITLB has LRU replacement policy
DTLB has LRU replacement policy
STLB has LRU replacement policy
L1I has LRU replacement policy
L1D has LRU replacement policy
Initialize SRRIP state for L2C
Initialize DRRIP state for LLC
Heartbeat CPU 0 instructions: 10000003 cycles: 2947072 heartbeat IPC: 3.3932 cumulative IPC: 3.3932 (Simulation time: 0 hr 2 min 45 sec) 
Heartbeat CPU 1 instructions: 10000003 cycles: 2947130 heartbeat IPC: 3.39313 cumulative IPC: 3.39313 (Simulation time: 0 hr 2 min 45 sec) 
Heartbeat CPU 2 instructions: 10000003 cycles: 2947192 heartbeat IPC: 3.39306 cumulative IPC: 3.39306 (Simulation time: 0 hr 2 min 45 sec) 
Heartbeat CPU 3 instructions: 10000003 cycles: 2947230 heartbeat IPC: 3.39302 cumulative IPC: 3.39302 (Simulation time: 0 hr 2 min 45 sec) 
Heartbeat CPU 0 instructions: 20000003 cycles: 5893695 heartbeat IPC: 3.39372 cumulative IPC: 3.39346 (Simulation time: 0 hr 5 min 28 sec) 
Heartbeat CPU 1 instructions: 20000003 cycles: 5893791 heartbeat IPC: 3.39367 cumulative IPC: 3.3934 (Simulation time: 0 hr 5 min 28 sec) 
Heartbeat CPU 2 instructions: 20000003 cycles: 5893858 heartbeat IPC: 3.39367 cumulative IPC: 3.39336 (Simulation time: 0 hr 5 min 28 sec) 
Heartbeat CPU 3 instructions: 20000003 cycles: 5893924 heartbeat IPC: 3.39363 cumulative IPC: 3.39333 (Simulation time: 0 hr 5 min 28 sec) 
Heartbeat CPU 0 instructions: 30000003 cycles: 8840297 heartbeat IPC: 3.39374 cumulative IPC: 3.39355 (Simulation time: 0 hr 8 min 15 sec) 
Heartbeat CPU 1 instructions: 30000003 cycles: 8840369 heartbeat IPC: 3.39377 cumulative IPC: 3.39352 (Simulation time: 0 hr 8 min 16 sec) 
Heartbeat CPU 2 instructions: 30000003 cycles: 8840485 heartbeat IPC: 3.39371 cumulative IPC: 3.39348 (Simulation time: 0 hr 8 min 16 sec) 
Heartbeat CPU 3 instructions: 30000003 cycles: 8840619 heartbeat IPC: 3.39363 cumulative IPC: 3.39343 (Simulation time: 0 hr 8 min 16 sec) 
Heartbeat CPU 0 instructions: 40000002 cycles: 11786954 heartbeat IPC: 3.39368 cumulative IPC: 3.39358 (Simulation time: 0 hr 11 min 10 sec) 
Heartbeat CPU 1 instructions: 40000002 cycles: 11787036 heartbeat IPC: 3.39366 cumulative IPC: 3.39356 (Simulation time: 0 hr 11 min 10 sec) 
Heartbeat CPU 2 instructions: 40000002 cycles: 11787238 heartbeat IPC: 3.39357 cumulative IPC: 3.3935 (Simulation time: 0 hr 11 min 10 sec) 
Heartbeat CPU 3 instructions: 40000002 cycles: 11787394 heartbeat IPC: 3.39354 cumulative IPC: 3.39346 (Simulation time: 0 hr 11 min 10 sec) 
Heartbeat CPU 0 instructions: 50000003 cycles: 14733642 heartbeat IPC: 3.39364 cumulative IPC: 3.39359 (Simulation time: 0 hr 13 min 54 sec) 
Heartbeat CPU 1 instructions: 50000003 cycles: 14733710 heartbeat IPC: 3.39366 cumulative IPC: 3.39358 (Simulation time: 0 hr 13 min 54 sec) 
Heartbeat CPU 2 instructions: 50000003 cycles: 14733981 heartbeat IPC: 3.39358 cumulative IPC: 3.39352 (Simulation time: 0 hr 13 min 54 sec) 
Heartbeat CPU 3 instructions: 50000003 cycles: 14734230 heartbeat IPC: 3.39347 cumulative IPC: 3.39346 (Simulation time: 0 hr 13 min 54 sec) 

Warmup complete CPU 0 instructions: 50002011 cycles: 14734230 (Simulation time: 0 hr 13 min 54 sec) 
Warmup complete CPU 1 instructions: 50001786 cycles: 14734230 (Simulation time: 0 hr 13 min 54 sec) 
Warmup complete CPU 2 instructions: 50000896 cycles: 14734230 (Simulation time: 0 hr 13 min 54 sec) 
Warmup complete CPU 3 instructions: 50000003 cycles: 14734230 (Simulation time: 0 hr 13 min 54 sec) 

Heartbeat CPU 3 instructions: 60000003 cycles: 29476286 heartbeat IPC: 0.678331 cumulative IPC: 0.678331 (Simulation time: 0 hr 18 min 14 sec) 
Heartbeat CPU 2 instructions: 60000003 cycles: 29500920 heartbeat IPC: 0.677188 cumulative IPC: 0.677139 (Simulation time: 0 hr 18 min 14 sec) 
Heartbeat CPU 1 instructions: 60000003 cycles: 29506328 heartbeat IPC: 0.676928 cumulative IPC: 0.676831 (Simulation time: 0 hr 18 min 14 sec) 
Heartbeat CPU 0 instructions: 60000003 cycles: 29573924 heartbeat IPC: 0.673842 cumulative IPC: 0.673733 (Simulation time: 0 hr 18 min 15 sec) 
Heartbeat CPU 2 instructions: 70000002 cycles: 44329131 heartbeat IPC: 0.67439 cumulative IPC: 0.675762 (Simulation time: 0 hr 22 min 39 sec) 
Heartbeat CPU 3 instructions: 70000002 cycles: 44337745 heartbeat IPC: 0.672881 cumulative IPC: 0.675595 (Simulation time: 0 hr 22 min 39 sec) 
Heartbeat CPU 0 instructions: 70000002 cycles: 44340906 heartbeat IPC: 0.677186 cumulative IPC: 0.675455 (Simulation time: 0 hr 22 min 39 sec) 
Heartbeat CPU 1 instructions: 70000002 cycles: 44387234 heartbeat IPC: 0.672002 cumulative IPC: 0.674408 (Simulation time: 0 hr 22 min 40 sec) 
Heartbeat CPU 2 instructions: 80000003 cycles: 59212218 heartbeat IPC: 0.671904 cumulative IPC: 0.674471 (Simulation time: 0 hr 27 min 20 sec) 
Heartbeat CPU 3 instructions: 80000003 cycles: 59234227 heartbeat IPC: 0.6713 cumulative IPC: 0.674157 (Simulation time: 0 hr 27 min 20 sec) 
Heartbeat CPU 0 instructions: 80000003 cycles: 59272417 heartbeat IPC: 0.669725 cumulative IPC: 0.673534 (Simulation time: 0 hr 27 min 21 sec) 
Heartbeat CPU 1 instructions: 80000003 cycles: 59442342 heartbeat IPC: 0.664226 cumulative IPC: 0.670979 (Simulation time: 0 hr 27 min 23 sec) 
Heartbeat CPU 3 instructions: 90000003 cycles: 74075646 heartbeat IPC: 0.67379 cumulative IPC: 0.674065 (Simulation time: 0 hr 31 min 47 sec) 
Heartbeat CPU 2 instructions: 90000003 cycles: 74112830 heartbeat IPC: 0.671113 cumulative IPC: 0.673628 (Simulation time: 0 hr 31 min 48 sec) 
Heartbeat CPU 0 instructions: 90000003 cycles: 74153153 heartbeat IPC: 0.67201 cumulative IPC: 0.673152 (Simulation time: 0 hr 31 min 48 sec) 
Heartbeat CPU 1 instructions: 90000003 cycles: 74327964 heartbeat IPC: 0.671789 cumulative IPC: 0.671182 (Simulation time: 0 hr 31 min 52 sec) 
Heartbeat CPU 3 instructions: 100000002 cycles: 88885683 heartbeat IPC: 0.675218 cumulative IPC: 0.674296 (Simulation time: 0 hr 36 min 20 sec) 
Heartbeat CPU 2 instructions: 100000002 cycles: 88930456 heartbeat IPC: 0.674872 cumulative IPC: 0.673877 (Simulation time: 0 hr 36 min 21 sec) 
Heartbeat CPU 0 instructions: 100000002 cycles: 89079801 heartbeat IPC: 0.669943 cumulative IPC: 0.672508 (Simulation time: 0 hr 36 min 24 sec) 
Heartbeat CPU 1 instructions: 100000002 cycles: 89256499 heartbeat IPC: 0.669858 cumulative IPC: 0.670916 (Simulation time: 0 hr 36 min 28 sec) 
Heartbeat CPU 3 instructions: 110000000 cycles: 103927857 heartbeat IPC: 0.664797 cumulative IPC: 0.672694 (Simulation time: 0 hr 40 min 45 sec) 
Heartbeat CPU 2 instructions: 110000000 cycles: 104053338 heartbeat IPC: 0.66125 cumulative IPC: 0.671739 (Simulation time: 0 hr 40 min 48 sec) 
Heartbeat CPU 0 instructions: 110000000 cycles: 104208245 heartbeat IPC: 0.661006 cumulative IPC: 0.670563 (Simulation time: 0 hr 40 min 51 sec) 
Heartbeat CPU 1 instructions: 110000000 cycles: 104338044 heartbeat IPC: 0.663062 cumulative IPC: 0.669594 (Simulation time: 0 hr 40 min 53 sec) 
Heartbeat CPU 3 instructions: 120000000 cycles: 119231036 heartbeat IPC: 0.653459 cumulative IPC: 0.669877 (Simulation time: 0 hr 45 min 14 sec) 
Heartbeat CPU 2 instructions: 120000000 cycles: 119289855 heartbeat IPC: 0.656318 cumulative IPC: 0.669492 (Simulation time: 0 hr 45 min 15 sec) 
Heartbeat CPU 0 instructions: 120000000 cycles: 119413957 heartbeat IPC: 0.657648 cumulative IPC: 0.668687 (Simulation time: 0 hr 45 min 18 sec) 
Heartbeat CPU 1 instructions: 120000000 cycles: 119706906 heartbeat IPC: 0.650666 cumulative IPC: 0.666823 (Simulation time: 0 hr 45 min 22 sec) 
Heartbeat CPU 2 instructions: 130000002 cycles: 134461011 heartbeat IPC: 0.659146 cumulative IPC: 0.668181 (Simulation time: 0 hr 49 min 51 sec) 
Heartbeat CPU 3 instructions: 130000002 cycles: 134660500 heartbeat IPC: 0.648111 cumulative IPC: 0.667077 (Simulation time: 0 hr 49 min 54 sec) 
Heartbeat CPU 0 instructions: 130000002 cycles: 134885612 heartbeat IPC: 0.646343 cumulative IPC: 0.66581 (Simulation time: 0 hr 49 min 58 sec) 
Heartbeat CPU 1 instructions: 130000002 cycles: 135005439 heartbeat IPC: 0.653658 cumulative IPC: 0.665148 (Simulation time: 0 hr 50 min 0 sec) 
Heartbeat CPU 2 instructions: 140000002 cycles: 149756417 heartbeat IPC: 0.653791 cumulative IPC: 0.666551 (Simulation time: 0 hr 54 min 26 sec) 
Heartbeat CPU 3 instructions: 140000002 cycles: 149905204 heartbeat IPC: 0.655966 cumulative IPC: 0.665823 (Simulation time: 0 hr 54 min 28 sec) 
Heartbeat CPU 0 instructions: 140000002 cycles: 150045135 heartbeat IPC: 0.659651 cumulative IPC: 0.66512 (Simulation time: 0 hr 54 min 31 sec) 
Heartbeat CPU 1 instructions: 140000002 cycles: 150330913 heartbeat IPC: 0.652508 cumulative IPC: 0.66372 (Simulation time: 0 hr 54 min 36 sec) 
Heartbeat CPU 2 instructions: 150000001 cycles: 164982573 heartbeat IPC: 0.656765 cumulative IPC: 0.665559 (Simulation time: 0 hr 59 min 18 sec) 
Heartbeat CPU 3 instructions: 150000001 cycles: 164986046 heartbeat IPC: 0.663093 cumulative IPC: 0.665549 (Simulation time: 0 hr 59 min 18 sec) 
Heartbeat CPU 0 instructions: 150000001 cycles: 165347216 heartbeat IPC: 0.653506 cumulative IPC: 0.66394 (Simulation time: 0 hr 59 min 25 sec) 
Heartbeat CPU 1 instructions: 150000001 cycles: 165724257 heartbeat IPC: 0.649631 cumulative IPC: 0.662284 (Simulation time: 0 hr 59 min 32 sec) 
Heartbeat CPU 2 instructions: 160000001 cycles: 180237256 heartbeat IPC: 0.655536 cumulative IPC: 0.664635 (Simulation time: 1 hr 4 min 4 sec) 
Heartbeat CPU 3 instructions: 160000001 cycles: 180333958 heartbeat IPC: 0.651554 cumulative IPC: 0.664252 (Simulation time: 1 hr 4 min 5 sec) 
Heartbeat CPU 0 instructions: 160000001 cycles: 180535357 heartbeat IPC: 0.658408 cumulative IPC: 0.663433 (Simulation time: 1 hr 4 min 9 sec) 
Heartbeat CPU 1 instructions: 160000001 cycles: 180893270 heartbeat IPC: 0.659239 cumulative IPC: 0.662006 (Simulation time: 1 hr 4 min 16 sec) 
Heartbeat CPU 2 instructions: 170000003 cycles: 195392178 heartbeat IPC: 0.659852 cumulative IPC: 0.664234 (Simulation time: 1 hr 8 min 49 sec) 
Heartbeat CPU 3 instructions: 170000003 cycles: 195641860 heartbeat IPC: 0.653257 cumulative IPC: 0.663322 (Simulation time: 1 hr 8 min 53 sec) 
Heartbeat CPU 0 instructions: 170000003 cycles: 195770106 heartbeat IPC: 0.656394 cumulative IPC: 0.662841 (Simulation time: 1 hr 8 min 56 sec) 
Heartbeat CPU 1 instructions: 170000001 cycles: 196138734 heartbeat IPC: 0.655933 cumulative IPC: 0.661495 (Simulation time: 1 hr 9 min 3 sec) 
Heartbeat CPU 2 instructions: 180000000 cycles: 210700685 heartbeat IPC: 0.653231 cumulative IPC: 0.663374 (Simulation time: 1 hr 13 min 28 sec) 
Heartbeat CPU 3 instructions: 180000001 cycles: 210824468 heartbeat IPC: 0.658648 cumulative IPC: 0.66296 (Simulation time: 1 hr 13 min 31 sec) 
Heartbeat CPU 0 instructions: 180000000 cycles: 211045593 heartbeat IPC: 0.654643 cumulative IPC: 0.662203 (Simulation time: 1 hr 13 min 35 sec) 
Heartbeat CPU 1 instructions: 180000001 cycles: 211416331 heartbeat IPC: 0.654553 cumulative IPC: 0.660956 (Simulation time: 1 hr 13 min 42 sec) 
Heartbeat CPU 2 instructions: 190000000 cycles: 225928629 heartbeat IPC: 0.656687 cumulative IPC: 0.662892 (Simulation time: 1 hr 18 min 6 sec) 
Heartbeat CPU 3 instructions: 190000000 cycles: 226081599 heartbeat IPC: 0.655431 cumulative IPC: 0.662417 (Simulation time: 1 hr 18 min 8 sec) 
Heartbeat CPU 0 instructions: 190000000 cycles: 226219093 heartbeat IPC: 0.659044 cumulative IPC: 0.661976 (Simulation time: 1 hr 18 min 10 sec) 
Heartbeat CPU 1 instructions: 190000000 cycles: 226660658 heartbeat IPC: 0.655982 cumulative IPC: 0.660598 (Simulation time: 1 hr 18 min 17 sec) 
Heartbeat CPU 2 instructions: 200000000 cycles: 241121946 heartbeat IPC: 0.658184 cumulative IPC: 0.662576 (Simulation time: 1 hr 22 min 41 sec) 
Heartbeat CPU 3 instructions: 200000000 cycles: 241298290 heartbeat IPC: 0.657173 cumulative IPC: 0.662064 (Simulation time: 1 hr 22 min 44 sec) 
Heartbeat CPU 0 instructions: 200000000 cycles: 241443233 heartbeat IPC: 0.656852 cumulative IPC: 0.661632 (Simulation time: 1 hr 22 min 47 sec) 
Heartbeat CPU 1 instructions: 200000000 cycles: 241918418 heartbeat IPC: 0.655404 cumulative IPC: 0.660249 (Simulation time: 1 hr 22 min 56 sec) 
Heartbeat CPU 2 instructions: 210000002 cycles: 256391236 heartbeat IPC: 0.654909 cumulative IPC: 0.662092 (Simulation time: 1 hr 27 min 12 sec) 
Heartbeat CPU 3 instructions: 210000002 cycles: 256553995 heartbeat IPC: 0.655493 cumulative IPC: 0.66165 (Simulation time: 1 hr 27 min 15 sec) 
Heartbeat CPU 0 instructions: 210000002 cycles: 256759310 heartbeat IPC: 0.652909 cumulative IPC: 0.66108 (Simulation time: 1 hr 27 min 19 sec) 
Heartbeat CPU 1 instructions: 210000002 cycles: 257188940 heartbeat IPC: 0.654857 cumulative IPC: 0.65991 (Simulation time: 1 hr 27 min 26 sec) 
Heartbeat CPU 2 instructions: 220000000 cycles: 271667508 heartbeat IPC: 0.65461 cumulative IPC: 0.661647 (Simulation time: 1 hr 31 min 43 sec) 
Heartbeat CPU 3 instructions: 220000000 cycles: 271852639 heartbeat IPC: 0.653653 cumulative IPC: 0.661174 (Simulation time: 1 hr 31 min 47 sec) 
Heartbeat CPU 0 instructions: 220000000 cycles: 271937915 heartbeat IPC: 0.658822 cumulative IPC: 0.660947 (Simulation time: 1 hr 31 min 48 sec) 
Heartbeat CPU 1 instructions: 220000000 cycles: 272310452 heartbeat IPC: 0.661309 cumulative IPC: 0.659992 (Simulation time: 1 hr 31 min 56 sec) 
Heartbeat CPU 2 instructions: 230000000 cycles: 287017798 heartbeat IPC: 0.651453 cumulative IPC: 0.661072 (Simulation time: 1 hr 36 min 20 sec) 
Heartbeat CPU 3 instructions: 230000000 cycles: 287137595 heartbeat IPC: 0.654238 cumulative IPC: 0.660785 (Simulation time: 1 hr 36 min 23 sec) 
Heartbeat CPU 0 instructions: 230000000 cycles: 287200083 heartbeat IPC: 0.655215 cumulative IPC: 0.660626 (Simulation time: 1 hr 36 min 24 sec) 
Heartbeat CPU 1 instructions: 230000000 cycles: 287505951 heartbeat IPC: 0.65809 cumulative IPC: 0.659886 (Simulation time: 1 hr 36 min 29 sec) 
Heartbeat CPU 2 instructions: 240000000 cycles: 302240095 heartbeat IPC: 0.656931 cumulative IPC: 0.660853 (Simulation time: 1 hr 41 min 11 sec) 
Heartbeat CPU 0 instructions: 240000000 cycles: 302374206 heartbeat IPC: 0.659017 cumulative IPC: 0.660541 (Simulation time: 1 hr 41 min 13 sec) 
Heartbeat CPU 3 instructions: 240000000 cycles: 302401641 heartbeat IPC: 0.655134 cumulative IPC: 0.660485 (Simulation time: 1 hr 41 min 14 sec) 
Heartbeat CPU 1 instructions: 240000000 cycles: 302835281 heartbeat IPC: 0.652344 cumulative IPC: 0.659485 (Simulation time: 1 hr 41 min 22 sec) 
Heartbeat CPU 2 instructions: 250000001 cycles: 317448179 heartbeat IPC: 0.657545 cumulative IPC: 0.660687 (Simulation time: 1 hr 45 min 53 sec) 
Finished CPU 2 instructions: 200000002 cycles: 302714432 cumulative IPC: 0.660689 (Simulation time: 1 hr 45 min 53 sec) 
Heartbeat CPU 3 instructions: 250000001 cycles: 317669261 heartbeat IPC: 0.654981 cumulative IPC: 0.660208 (Simulation time: 1 hr 45 min 57 sec) 
Finished CPU 3 instructions: 200000002 cycles: 302935032 cumulative IPC: 0.660208 (Simulation time: 1 hr 45 min 57 sec) 
Heartbeat CPU 0 instructions: 250000001 cycles: 317768157 heartbeat IPC: 0.649606 cumulative IPC: 0.659985 (Simulation time: 1 hr 45 min 59 sec) 
Finished CPU 0 instructions: 200000003 cycles: 303036318 cumulative IPC: 0.659987 (Simulation time: 1 hr 45 min 59 sec) 
Heartbeat CPU 1 instructions: 250000001 cycles: 317912306 heartbeat IPC: 0.663261 cumulative IPC: 0.659672 (Simulation time: 1 hr 46 min 2 sec) 
Finished CPU 1 instructions: 200000002 cycles: 303179969 cumulative IPC: 0.659674 (Simulation time: 1 hr 46 min 2 sec) 

ChampSim completed all CPUs

Total Simulation Statistics (not including warmup)

CPU 0 cumulative IPC: 0.659967 instructions: 200088652 cycles: 303179969
ITLB TOTAL     ACCESS:   25282411  HIT:   25282411  MISS:          0  HIT %:        100  MISS %:          0   MPKI: 0
ITLB LOAD      ACCESS:          0  HIT:          0  MISS:          0  HIT %:       -nan  MISS %:       -nan   MPKI: 0
ITLB RFO       ACCESS:          0  HIT:          0  MISS:          0  HIT %:       -nan  MISS %:       -nan   MPKI: 0
ITLB PREFETCH  ACCESS:          0  HIT:          0  MISS:          0  HIT %:       -nan  MISS %:       -nan   MPKI: 0
ITLB WRITEBACK ACCESS:          0  HIT:          0  MISS:          0  HIT %:       -nan  MISS %:       -nan   MPKI: 0
DTLB TOTAL     ACCESS:   43911446  HIT:   43613314  MISS:     298132  HIT %:    99.3211  MISS %:   0.678939   MPKI: 1.49
DTLB LOAD      ACCESS:          0  HIT:          0  MISS:          0  HIT %:       -nan  MISS %:       -nan   MPKI: 0
DTLB RFO       ACCESS:          0  HIT:          0  MISS:          0  HIT %:       -nan  MISS %:       -nan   MPKI: 0
DTLB PREFETCH  ACCESS:          0  HIT:          0  MISS:          0  HIT %:       -nan  MISS %:       -nan   MPKI: 0
DTLB WRITEBACK ACCESS:          0  HIT:          0  MISS:          0  HIT %:       -nan  MISS %:       -nan   MPKI: 0
STLB TOTAL     ACCESS:    1452500  HIT:    1409871  MISS:      42629  HIT %:    97.0651  MISS %:    2.93487   MPKI: 0.213051
STLB LOAD      ACCESS:          0  HIT:          0  MISS:          0  HIT %:       -nan  MISS %:       -nan   MPKI: 0
STLB RFO       ACCESS:          0  HIT:          0  MISS:          0  HIT %:       -nan  MISS %:       -nan   MPKI: 0
STLB PREFETCH  ACCESS:          0  HIT:          0  MISS:          0  HIT %:       -nan  MISS %:       -nan   MPKI: 0
STLB WRITEBACK ACCESS:          0  HIT:          0  MISS:          0  HIT %:       -nan  MISS %:       -nan   MPKI: 0
L1D TOTAL     ACCESS:   62308314  HIT:   59047306  MISS:    3261008  HIT %:    94.7663  MISS %:    5.23366   MPKI: 16.2978
L1D LOAD      ACCESS:   31180824  HIT:   30444068  MISS:     736756  HIT %:    97.6372  MISS %:    2.36285   MPKI: 3.68215
L1D RFO       ACCESS:   29799647  HIT:   28603238  MISS:    1196409  HIT %:    95.9852  MISS %:    4.01484   MPKI: 5.97939
L1D PREFETCH  ACCESS:    1327843  HIT:          0  MISS:    1327843  HIT %:          0  MISS %:        100   MPKI: 6.63627
L1D WRITEBACK ACCESS:          0  HIT:          0  MISS:          0  HIT %:       -nan  MISS %:       -nan   MPKI: 0
L1I TOTAL     ACCESS:   28888132  HIT:   28888132  MISS:          0  HIT %:        100  MISS %:          0   MPKI: 0
L1I LOAD      ACCESS:   28888132  HIT:   28888132  MISS:          0  HIT %:        100  MISS %:          0   MPKI: 0
L1I RFO       ACCESS:          0  HIT:          0  MISS:          0  HIT %:       -nan  MISS %:       -nan   MPKI: 0
L1I PREFETCH  ACCESS:          0  HIT:          0  MISS:          0  HIT %:       -nan  MISS %:       -nan   MPKI: 0
L1I WRITEBACK ACCESS:          0  HIT:          0  MISS:          0  HIT %:       -nan  MISS %:       -nan   MPKI: 0
L2C TOTAL     ACCESS:    4503961  HIT:    1464091  MISS:    3039870  HIT %:    32.5067  MISS %:    67.4933   MPKI: 15.1926
L2C LOAD      ACCESS:     599771  HIT:     287806  MISS:     311965  HIT %:     47.986  MISS %:     52.014   MPKI: 1.55913
L2C RFO       ACCESS:    1193540  HIT:       2250  MISS:    1191290  HIT %:   0.188515  MISS %:    99.8115   MPKI: 5.95381
L2C PREFETCH  ACCESS:    1464791  HIT:          0  MISS:    1464791  HIT %:          0  MISS %:        100   MPKI: 7.32071
L2C WRITEBACK ACCESS:    1203188  HIT:    1138047  MISS:      65141  HIT %:     94.586  MISS %:    5.41403   MPKI: 0.325561
PSCL5 TOTAL     ACCESS:      42629  HIT:      42629  MISS:          0  HIT %:        100  MISS %:          0   MPKI: 0
PSCL5 LOAD      ACCESS:          0  HIT:          0  MISS:          0  HIT %:       -nan  MISS %:       -nan   MPKI: 0
PSCL5 RFO       ACCESS:          0  HIT:          0  MISS:          0  HIT %:       -nan  MISS %:       -nan   MPKI: 0
PSCL5 PREFETCH  ACCESS:          0  HIT:          0  MISS:          0  HIT %:       -nan  MISS %:       -nan   MPKI: 0
PSCL5 WRITEBACK ACCESS:          0  HIT:          0  MISS:          0  HIT %:       -nan  MISS %:       -nan   MPKI: 0
PSCL4 TOTAL     ACCESS:      42629  HIT:      42629  MISS:          0  HIT %:        100  MISS %:          0   MPKI: 0
PSCL4 LOAD      ACCESS:          0  HIT:          0  MISS:          0  HIT %:       -nan  MISS %:       -nan   MPKI: 0
PSCL4 RFO       ACCESS:          0  HIT:          0  MISS:          0  HIT %:       -nan  MISS %:       -nan   MPKI: 0
PSCL4 PREFETCH  ACCESS:          0  HIT:          0  MISS:          0  HIT %:       -nan  MISS %:       -nan   MPKI: 0
PSCL4 WRITEBACK ACCESS:          0  HIT:          0  MISS:          0  HIT %:       -nan  MISS %:       -nan   MPKI: 0
PSCL3 TOTAL     ACCESS:      33569  HIT:      33539  MISS:         30  HIT %:    99.9106  MISS %:  0.0893682   MPKI: 0.000149934
PSCL3 LOAD      ACCESS:          0  HIT:          0  MISS:          0  HIT %:       -nan  MISS %:       -nan   MPKI: 0
PSCL3 RFO       ACCESS:          0  HIT:          0  MISS:          0  HIT %:       -nan  MISS %:       -nan   MPKI: 0
PSCL3 PREFETCH  ACCESS:          0  HIT:          0  MISS:          0  HIT %:       -nan  MISS %:       -nan   MPKI: 0
PSCL3 WRITEBACK ACCESS:          0  HIT:          0  MISS:          0  HIT %:       -nan  MISS %:       -nan   MPKI: 0
PSCL2 TOTAL     ACCESS:      42629  HIT:      42544  MISS:         85  HIT %:    99.8006  MISS %:   0.199395   MPKI: 0.000424812
PSCL2 LOAD      ACCESS:          0  HIT:          0  MISS:          0  HIT %:       -nan  MISS %:       -nan   MPKI: 0
PSCL2 RFO       ACCESS:          0  HIT:          0  MISS:          0  HIT %:       -nan  MISS %:       -nan   MPKI: 0
PSCL2 PREFETCH  ACCESS:          0  HIT:          0  MISS:          0  HIT %:       -nan  MISS %:       -nan   MPKI: 0
PSCL2 WRITEBACK ACCESS:          0  HIT:          0  MISS:          0  HIT %:       -nan  MISS %:       -nan   MPKI: 0
=== CPU 0 L1D Prefetcher Statistics ===
[MLOP] History of tracked zone:
IIIIIIIIIIIIIIIIIIIIIIIIIIIIIIIIIIIIIIIIIIIIIIIIIIIIIIIIIIIIIIII
IIIIIIIIIIIIIIIIIIIIIIIIIA111IIIIIIIIIIIIIIIIIIIIIIIIIIIIIIIIIII
IIIIIIIIIIIIIIIIIIIIIIIIIAA111IIIIIIIIIIIIIIIIIIIIIIIIIIIIIIIIII
IIIIIIIIIIIIIIIIIIIIIIIIIAAA111IIIIIIIIIIIIIIIIIIIIIIIIIIIIIIIII
IIIIIIIIIIIIIIIIIIIIIIIIIAAAA111IIIIIIIIIIIIIIIIIIIIIIIIIIIIIIII
A111IIIIIIIIIIIIIIIIIIIIIAAAA111IIIIIIIIIIIIIIIIIIIIIIIIIIIIIIII
AA111IIIIIIIIIIIIIIIIIIIIAAAA111IIIIIIIIIIIIIIIIIIIIIIIIIIIIIIII
AAA111IIIIIIIIIIIIIIIIIIIAAAA111IIIIIIIIIIIIIIIIIIIIIIIIIIIIIIII
AAAA111IIIIIIIIIIIIIIIIIIAAAA111IIIIIIIIIIIIIIIIIIIIIIIIIIIIIIII
AAAAA111IIIIIIIIIIIIIIIIIAAAA111IIIIIIIIIIIIIIIIIIIIIIIIIIIIIIII
AAAAAA111IIIIIIIIIIIIIIIIAAAA111IIIIIIIIIIIIIIIIIIIIIIIIIIIIIIII
AAAAAAA111IIIIIIIIIIIIIIIAAAA111IIIIIIIIIIIIIIIIIIIIIIIIIIIIIIII
AAAAAAAA111IIIIIIIIIIIIIIAAAA111IIIIIIIIIIIIIIIIIIIIIIIIIIIIIIII
AAAAAAAAA111IIIIIIIIIIIIIAAAA111IIIIIIIIIIIIIIIIIIIIIIIIIIIIIIII
AAAAAAAAAA111IIIIIIIIIIIIAAAA111IIIIIIIIIIIIIIIIIIIIIIIIIIIIIIII
AAAAAAAAAAA111IIIIIIIIIIIAAAA111IIIIIIIIIIIIIIIIIIIIIIIIIIIIIIII
AAAAAAAAAAAA111IIIIIIIIIIAAAA111IIIIIIIIIIIIIIIIIIIIIIIIIIIIIIII
AAAAAAAAAAAAA111IIIIIIIIIAAAA111IIIIIIIIIIIIIIIIIIIIIIIIIIIIIIII
AAAAAAAAAAAAAA111IIIIIIIIAAAA111IIIIIIIIIIIIIIIIIIIIIIIIIIIIIIII
AAAAAAAAAAAAAAA111IIIIIIIAAAA111IIIIIIIIIIIIIIIIIIIIIIIIIIIIIIII
AAAAAAAAAAAAAAAA111IIIIIIAAAA111IIIIIIIIIIIIIIIIIIIIIIIIIIIIIIII
AAAAAAAAAAAAAAAAA111IIIIIAAAA111IIIIIIIIIIIIIIIIIIIIIIIIIIIIIIII
AAAAAAAAAAAAAAAAAA111IIIIAAAA111IIIIIIIIIIIIIIIIIIIIIIIIIIIIIIII
AAAAAAAAAAAAAAAAAAA111IIIAAAA111IIIIIIIIIIIIIIIIIIIIIIIIIIIIIIII
AAAAAAAAAAAAAAAAAAAA111IIAAAA111IIIIIIIIIIIIIIIIIIIIIIIIIIIIIIII
AAAAAAAAAAAAAAAAAAAAA111IAAAA111IIIIIIIIIIIIIIIIIIIIIIIIIIIIIIII
AAAAAAAAAAAAAAAAAAAAAA111AAAA111IIIIIIIIIIIIIIIIIIIIIIIIIIIIIIII
AAAAAAAAAAAAAAAAAAAAAAA11AAAA111IIIIIIIIIIIIIIIIIIIIIIIIIIIIIIII
AAAAAAAAAAAAAAAAAAAAAAAA1AAAA111IIIIIIIIIIIIIIIIIIIIIIIIIIIIIIII
AAAAAAAAAAAAAAAAAAAAAAAAAAAAA111IIIIIIIIIIIIIIIIIIIIIIIIIIIIIIII
AAAAAAAAAAAAAAAAAAAAAAAAAAAAA11A111IIIIIIIIIIIIIIIIIIIIIIIIIIIII
AAAAAAAAAAAAAAAAAAAAAAAAAAAAA11AA111IIIIIIIIIIIIIIIIIIIIIIIIIIII
AAAAAAAAAAAAAAAAAAAAAAAAAAAAA11AAA111IIIIIIIIIIIIIIIIIIIIIIIIIII
AAAAAAAAAAAAAAAAAAAAAAAAAAAAA11AAAA111IIIIIIIIIIIIIIIIIIIIIIIIII
AAAAAAAAAAAAAAAAAAAAAAAAAAAAA11AAAAA111IIIIIIIIIIIIIIIIIIIIIIIII
AAAAAAAAAAAAAAAAAAAAAAAAAAAAAA1AAAAA111IIIIIIIIIIIIIIIIIIIIIIIII
AAAAAAAAAAAAAAAAAAAAAAAAAAAAAA1AAAAAA111IIIIIIIIIIIIIIIIIIIIIIII
AAAAAAAAAAAAAAAAAAAAAAAAAAAAAAAAAAAAA111IIIIIIIIIIIIIIIIIIIIIIII
AAAAAAAAAAAAAAAAAAAAAAAAAAAAAAAAAAAAAA111IIIIIIIIIIIIIIIIIIIIIII
AAAAAAAAAAAAAAAAAAAAAAAAAAAAAAAAAAAAAAA111IIIIIIIIIIIIIIIIIIIIII
AAAAAAAAAAAAAAAAAAAAAAAAAAAAAAAAAAAAAAAA111IIIIIIIIIIIIIIIIIIIII
AAAAAAAAAAAAAAAAAAAAAAAAAAAAAAAAAAAAAAAAA111IIIIIIIIIIIIIIIIIIII
AAAAAAAAAAAAAAAAAAAAAAAAAAAAAAAAAAAAAAAAAA111IIIIIIIIIIIIIIIIIII
AAAAAAAAAAAAAAAAAAAAAAAAAAAAAAAAAAAAAAAAAAA111IIIIIIIIIIIIIIIIII
AAAAAAAAAAAAAAAAAAAAAAAAAAAAAAAAAAAAAAAAAAAA111IIIIIIIIIIIIIIIII
AAAAAAAAAAAAAAAAAAAAAAAAAAAAAAAAAAAAAAAAAAAAA111IIIIIIIIIIIIIIII
AAAAAAAAAAAAAAAAAAAAAAAAAAAAAAAAAAAAAAAAAAAAAA111IIIIIIIIIIIIIII
AAAAAAAAAAAAAAAAAAAAAAAAAAAAAAAAAAAAAAAAAAAAAAA111IIIIIIIIIIIIII
AAAAAAAAAAAAAAAAAAAAAAAAAAAAAAAAAAAAAAAAAAAAAAAA111IIIIIIIIIIIII
AAAAAAAAAAAAAAAAAAAAAAAAAAAAAAAAAAAAAAAAAAAAAAAAA111IIIIIIIIIIII
AAAAAAAAAAAAAAAAAAAAAAAAAAAAAAAAAAAAAAAAAAAAAAAAAA111IIIIIIIIIII
AAAAAAAAAAAAAAAAAAAAAAAAAAAAAAAAAAAAAAAAAAAAAAAAAAA111IIIIIIIIII
AAAAAAAAAAAAAAAAAAAAAAAAAAAAAAAAAAAAAAAAAAAAAAAAAAAA111IIIIIIIII
AAAAAAAAAAAAAAAAAAAAAAAAAAAAAAAAAAAAAAAAAAAAAAAAAAAAA111IIIIIIII
AAAAAAAAAAAAAAAAAAAAAAAAAAAAAAAAAAAAAAAAAAAAAAAAAAAAAA111IIIIIII
AAAAAAAAAAAAAAAAAAAAAAAAAAAAAAAAAAAAAAAAAAAAAAAAAAAAAAA111IIIIII
AAAAAAAAAAAAAAAAAAAAAAAAAAAAAAAAAAAAAAAAAAAAAAAAAAAAAAAA111IIIII
AAAAAAAAAAAAAAAAAAAAAAAAAAAAAAAAAAAAAAAAAAAAAAAAAAAAAAAAA111IIII
AAAAAAAAAAAAAAAAAAAAAAAAAAAAAAAAAAAAAAAAAAAAAAAAAAAAAAAAAA111III
AAAAAAAAAAAAAAAAAAAAAAAAAAAAAAAAAAAAAAAAAAAAAAAAAAAAAAAAAAA111II
AAAAAAAAAAAAAAAAAAAAAAAAAAAAAAAAAAAAAAAAAAAAAAAAAAAAAAAAAAAA111I
AAAAAAAAAAAAAAAAAAAAAAAAAAAAAAAAAAAAAAAAAAAAAAAAAAAAAAAAAAAAA111
AAAAAAAAAAAAAAAAAAAAAAAAAAAAAAAAAAAAAAAAAAAAAAAAAAAAAAAAAAAAAA11
AAAAAAAAAAAAAAAAAAAAAAAAAAAAAAAAAAAAAAAAAAAAAAAAAAAAAAAAAAAAAAA1
AAAAAAAAAAAAAAAAAAAAAAAAAAAAAAAAAAAAAAAAAAAAAAAAAAAAAAAAAAAAAAAA
[MLOP] Prefetch Degree Mean: 2.98667
[MLOP] Prefetch Degree SD: 0.17075
[MLOP] Max Score Left Mean (%): 92.4448
[MLOP] Max Score Left SD (%): 4.8689
[MLOP] Max Score Right Mean (%): 99.1355
[MLOP] Max Score Right SD (%): 1.89281
LLC TOTAL     ACCESS:    4167491  HIT:    1381297  MISS:    2786194  HIT %:    33.1446  MISS %:    66.8554   MPKI: 13.9248
LLC LOAD      ACCESS:     311965  HIT:     239851  MISS:      72114  HIT %:    76.8839  MISS %:    23.1161   MPKI: 0.36041
LLC RFO       ACCESS:    1191290  HIT:          0  MISS:    1191290  HIT %:          0  MISS %:        100   MPKI: 5.95381
LLC PREFETCH  ACCESS:    1464791  HIT:          0  MISS:    1464791  HIT %:          0  MISS %:        100   MPKI: 7.32071
LLC WRITEBACK ACCESS:    1192762  HIT:    1140212  MISS:      52550  HIT %:    95.5943  MISS %:    4.40574   MPKI: 0.262634

RAW hits: 13103239
Loads Generated: 58671951
Loads sent to L1D: 45568714
Stores Generated: 36665293
Stores sent to L1D: 36665307

CPU 1 cumulative IPC: 0.659674 instructions: 200000002 cycles: 303179969
ITLB TOTAL     ACCESS:   25271989  HIT:   25271989  MISS:          0  HIT %:        100  MISS %:          0   MPKI: 0
ITLB LOAD      ACCESS:          0  HIT:          0  MISS:          0  HIT %:       -nan  MISS %:       -nan   MPKI: 0
ITLB RFO       ACCESS:          0  HIT:          0  MISS:          0  HIT %:       -nan  MISS %:       -nan   MPKI: 0
ITLB PREFETCH  ACCESS:          0  HIT:          0  MISS:          0  HIT %:       -nan  MISS %:       -nan   MPKI: 0
ITLB WRITEBACK ACCESS:          0  HIT:          0  MISS:          0  HIT %:       -nan  MISS %:       -nan   MPKI: 0
DTLB TOTAL     ACCESS:   43896940  HIT:   43599013  MISS:     297927  HIT %:    99.3213  MISS %:   0.678697   MPKI: 1.48963
DTLB LOAD      ACCESS:          0  HIT:          0  MISS:          0  HIT %:       -nan  MISS %:       -nan   MPKI: 0
DTLB RFO       ACCESS:          0  HIT:          0  MISS:          0  HIT %:       -nan  MISS %:       -nan   MPKI: 0
DTLB PREFETCH  ACCESS:          0  HIT:          0  MISS:          0  HIT %:       -nan  MISS %:       -nan   MPKI: 0
DTLB WRITEBACK ACCESS:          0  HIT:          0  MISS:          0  HIT %:       -nan  MISS %:       -nan   MPKI: 0
STLB TOTAL     ACCESS:    1451267  HIT:    1408658  MISS:      42609  HIT %:     97.064  MISS %:    2.93599   MPKI: 0.213045
STLB LOAD      ACCESS:          0  HIT:          0  MISS:          0  HIT %:       -nan  MISS %:       -nan   MPKI: 0
STLB RFO       ACCESS:          0  HIT:          0  MISS:          0  HIT %:       -nan  MISS %:       -nan   MPKI: 0
STLB PREFETCH  ACCESS:          0  HIT:          0  MISS:          0  HIT %:       -nan  MISS %:       -nan   MPKI: 0
STLB WRITEBACK ACCESS:          0  HIT:          0  MISS:          0  HIT %:       -nan  MISS %:       -nan   MPKI: 0
L1D TOTAL     ACCESS:   62285079  HIT:   59025492  MISS:    3259587  HIT %:    94.7667  MISS %:    5.23334   MPKI: 16.2979
L1D LOAD      ACCESS:   31170038  HIT:   30433352  MISS:     736686  HIT %:    97.6366  MISS %:    2.36344   MPKI: 3.68343
L1D RFO       ACCESS:   29787944  HIT:   28592139  MISS:    1195805  HIT %:    95.9856  MISS %:    4.01439   MPKI: 5.97902
L1D PREFETCH  ACCESS:    1327097  HIT:          1  MISS:    1327096  HIT %: 7.53524e-05  MISS %:    99.9999   MPKI: 6.63548
L1D WRITEBACK ACCESS:          0  HIT:          0  MISS:          0  HIT %:       -nan  MISS %:       -nan   MPKI: 0
L1I TOTAL     ACCESS:   28877346  HIT:   28877346  MISS:          0  HIT %:        100  MISS %:          0   MPKI: 0
L1I LOAD      ACCESS:   28877346  HIT:   28877346  MISS:          0  HIT %:        100  MISS %:          0   MPKI: 0
L1I RFO       ACCESS:          0  HIT:          0  MISS:          0  HIT %:       -nan  MISS %:       -nan   MPKI: 0
L1I PREFETCH  ACCESS:          0  HIT:          0  MISS:          0  HIT %:       -nan  MISS %:       -nan   MPKI: 0
L1I WRITEBACK ACCESS:          0  HIT:          0  MISS:          0  HIT %:       -nan  MISS %:       -nan   MPKI: 0
L2C TOTAL     ACCESS:    4502057  HIT:    1463355  MISS:    3038702  HIT %:    32.5041  MISS %:    67.4959   MPKI: 15.1935
L2C LOAD      ACCESS:     599365  HIT:     288011  MISS:     311354  HIT %:    48.0527  MISS %:    51.9473   MPKI: 1.55677
L2C RFO       ACCESS:    1193015  HIT:       2254  MISS:    1190761  HIT %:   0.188933  MISS %:    99.8111   MPKI: 5.9538
L2C PREFETCH  ACCESS:    1464383  HIT:          0  MISS:    1464383  HIT %:          0  MISS %:        100   MPKI: 7.32191
L2C WRITEBACK ACCESS:    1202643  HIT:    1137069  MISS:      65574  HIT %:    94.5475  MISS %:    5.45249   MPKI: 0.32787
PSCL5 TOTAL     ACCESS:      42609  HIT:      42609  MISS:          0  HIT %:        100  MISS %:          0   MPKI: 0
PSCL5 LOAD      ACCESS:          0  HIT:          0  MISS:          0  HIT %:       -nan  MISS %:       -nan   MPKI: 0
PSCL5 RFO       ACCESS:          0  HIT:          0  MISS:          0  HIT %:       -nan  MISS %:       -nan   MPKI: 0
PSCL5 PREFETCH  ACCESS:          0  HIT:          0  MISS:          0  HIT %:       -nan  MISS %:       -nan   MPKI: 0
PSCL5 WRITEBACK ACCESS:          0  HIT:          0  MISS:          0  HIT %:       -nan  MISS %:       -nan   MPKI: 0
PSCL4 TOTAL     ACCESS:      42609  HIT:      42609  MISS:          0  HIT %:        100  MISS %:          0   MPKI: 0
PSCL4 LOAD      ACCESS:          0  HIT:          0  MISS:          0  HIT %:       -nan  MISS %:       -nan   MPKI: 0
PSCL4 RFO       ACCESS:          0  HIT:          0  MISS:          0  HIT %:       -nan  MISS %:       -nan   MPKI: 0
PSCL4 PREFETCH  ACCESS:          0  HIT:          0  MISS:          0  HIT %:       -nan  MISS %:       -nan   MPKI: 0
PSCL4 WRITEBACK ACCESS:          0  HIT:          0  MISS:          0  HIT %:       -nan  MISS %:       -nan   MPKI: 0
PSCL3 TOTAL     ACCESS:      33400  HIT:      33370  MISS:         30  HIT %:    99.9102  MISS %:  0.0898204   MPKI: 0.00015
PSCL3 LOAD      ACCESS:          0  HIT:          0  MISS:          0  HIT %:       -nan  MISS %:       -nan   MPKI: 0
PSCL3 RFO       ACCESS:          0  HIT:          0  MISS:          0  HIT %:       -nan  MISS %:       -nan   MPKI: 0
PSCL3 PREFETCH  ACCESS:          0  HIT:          0  MISS:          0  HIT %:       -nan  MISS %:       -nan   MPKI: 0
PSCL3 WRITEBACK ACCESS:          0  HIT:          0  MISS:          0  HIT %:       -nan  MISS %:       -nan   MPKI: 0
PSCL2 TOTAL     ACCESS:      42609  HIT:      42524  MISS:         85  HIT %:    99.8005  MISS %:   0.199488   MPKI: 0.000425
PSCL2 LOAD      ACCESS:          0  HIT:          0  MISS:          0  HIT %:       -nan  MISS %:       -nan   MPKI: 0
PSCL2 RFO       ACCESS:          0  HIT:          0  MISS:          0  HIT %:       -nan  MISS %:       -nan   MPKI: 0
PSCL2 PREFETCH  ACCESS:          0  HIT:          0  MISS:          0  HIT %:       -nan  MISS %:       -nan   MPKI: 0
PSCL2 WRITEBACK ACCESS:          0  HIT:          0  MISS:          0  HIT %:       -nan  MISS %:       -nan   MPKI: 0
=== CPU 1 L1D Prefetcher Statistics ===
[MLOP] History of tracked zone:
IIIIIIIIIIIIIIIIIIIIIIIIIIIIIIIIIIIIIIIIIIIIIIIIIIIIIIIIIIIIIIII
IIIIIIIIIIIIIIIIIIIIIIIIIA111IIIIIIIIIIIIIIIIIIIIIIIIIIIIIIIIIII
IIIIIIIIIIIIIIIIIIIIIIIIIAA111IIIIIIIIIIIIIIIIIIIIIIIIIIIIIIIIII
IIIIIIIIIIIIIIIIIIIIIIIIIAAA111IIIIIIIIIIIIIIIIIIIIIIIIIIIIIIIII
IIIIIIIIIIIIIIIIIIIIIIIIIAAAA111IIIIIIIIIIIIIIIIIIIIIIIIIIIIIIII
A111IIIIIIIIIIIIIIIIIIIIIAAAA111IIIIIIIIIIIIIIIIIIIIIIIIIIIIIIII
AA111IIIIIIIIIIIIIIIIIIIIAAAA111IIIIIIIIIIIIIIIIIIIIIIIIIIIIIIII
AAA111IIIIIIIIIIIIIIIIIIIAAAA111IIIIIIIIIIIIIIIIIIIIIIIIIIIIIIII
AAAA111IIIIIIIIIIIIIIIIIIAAAA111IIIIIIIIIIIIIIIIIIIIIIIIIIIIIIII
AAAAA111IIIIIIIIIIIIIIIIIAAAA111IIIIIIIIIIIIIIIIIIIIIIIIIIIIIIII
AAAAAA111IIIIIIIIIIIIIIIIAAAA111IIIIIIIIIIIIIIIIIIIIIIIIIIIIIIII
AAAAAAA111IIIIIIIIIIIIIIIAAAA111IIIIIIIIIIIIIIIIIIIIIIIIIIIIIIII
AAAAAAAA111IIIIIIIIIIIIIIAAAA111IIIIIIIIIIIIIIIIIIIIIIIIIIIIIIII
AAAAAAAAA111IIIIIIIIIIIIIAAAA111IIIIIIIIIIIIIIIIIIIIIIIIIIIIIIII
AAAAAAAAAA111IIIIIIIIIIIIAAAA111IIIIIIIIIIIIIIIIIIIIIIIIIIIIIIII
AAAAAAAAAAA111IIIIIIIIIIIAAAA111IIIIIIIIIIIIIIIIIIIIIIIIIIIIIIII
AAAAAAAAAAAA111IIIIIIIIIIAAAA111IIIIIIIIIIIIIIIIIIIIIIIIIIIIIIII
AAAAAAAAAAAAA111IIIIIIIIIAAAA111IIIIIIIIIIIIIIIIIIIIIIIIIIIIIIII
AAAAAAAAAAAAAA111IIIIIIIIAAAA111IIIIIIIIIIIIIIIIIIIIIIIIIIIIIIII
AAAAAAAAAAAAAAA111IIIIIIIAAAA111IIIIIIIIIIIIIIIIIIIIIIIIIIIIIIII
AAAAAAAAAAAAAAAA111IIIIIIAAAA111IIIIIIIIIIIIIIIIIIIIIIIIIIIIIIII
AAAAAAAAAAAAAAAAA111IIIIIAAAA111IIIIIIIIIIIIIIIIIIIIIIIIIIIIIIII
AAAAAAAAAAAAAAAAAA111IIIIAAAA111IIIIIIIIIIIIIIIIIIIIIIIIIIIIIIII
AAAAAAAAAAAAAAAAAAA111IIIAAAA111IIIIIIIIIIIIIIIIIIIIIIIIIIIIIIII
AAAAAAAAAAAAAAAAAAAA111IIAAAA111IIIIIIIIIIIIIIIIIIIIIIIIIIIIIIII
AAAAAAAAAAAAAAAAAAAAA111IAAAA111IIIIIIIIIIIIIIIIIIIIIIIIIIIIIIII
AAAAAAAAAAAAAAAAAAAAAA111AAAA111IIIIIIIIIIIIIIIIIIIIIIIIIIIIIIII
AAAAAAAAAAAAAAAAAAAAAAA11AAAA111IIIIIIIIIIIIIIIIIIIIIIIIIIIIIIII
AAAAAAAAAAAAAAAAAAAAAAAA1AAAA111IIIIIIIIIIIIIIIIIIIIIIIIIIIIIIII
AAAAAAAAAAAAAAAAAAAAAAAAAAAAA111IIIIIIIIIIIIIIIIIIIIIIIIIIIIIIII
AAAAAAAAAAAAAAAAAAAAAAAAAAAAA11A111IIIIIIIIIIIIIIIIIIIIIIIIIIIII
AAAAAAAAAAAAAAAAAAAAAAAAAAAAA11AA111IIIIIIIIIIIIIIIIIIIIIIIIIIII
AAAAAAAAAAAAAAAAAAAAAAAAAAAAA11AAA111IIIIIIIIIIIIIIIIIIIIIIIIIII
AAAAAAAAAAAAAAAAAAAAAAAAAAAAA11AAAA111IIIIIIIIIIIIIIIIIIIIIIIIII
AAAAAAAAAAAAAAAAAAAAAAAAAAAAA11AAAAA111IIIIIIIIIIIIIIIIIIIIIIIII
AAAAAAAAAAAAAAAAAAAAAAAAAAAAAA1AAAAA111IIIIIIIIIIIIIIIIIIIIIIIII
AAAAAAAAAAAAAAAAAAAAAAAAAAAAAA1AAAAAA111IIIIIIIIIIIIIIIIIIIIIIII
AAAAAAAAAAAAAAAAAAAAAAAAAAAAAAAAAAAAA111IIIIIIIIIIIIIIIIIIIIIIII
AAAAAAAAAAAAAAAAAAAAAAAAAAAAAAAAAAAAAA111IIIIIIIIIIIIIIIIIIIIIII
AAAAAAAAAAAAAAAAAAAAAAAAAAAAAAAAAAAAAAA111IIIIIIIIIIIIIIIIIIIIII
AAAAAAAAAAAAAAAAAAAAAAAAAAAAAAAAAAAAAAAA111IIIIIIIIIIIIIIIIIIIII
AAAAAAAAAAAAAAAAAAAAAAAAAAAAAAAAAAAAAAAAA111IIIIIIIIIIIIIIIIIIII
AAAAAAAAAAAAAAAAAAAAAAAAAAAAAAAAAAAAAAAAAA111IIIIIIIIIIIIIIIIIII
AAAAAAAAAAAAAAAAAAAAAAAAAAAAAAAAAAAAAAAAAAA111IIIIIIIIIIIIIIIIII
AAAAAAAAAAAAAAAAAAAAAAAAAAAAAAAAAAAAAAAAAAAA111IIIIIIIIIIIIIIIII
AAAAAAAAAAAAAAAAAAAAAAAAAAAAAAAAAAAAAAAAAAAAA111IIIIIIIIIIIIIIII
AAAAAAAAAAAAAAAAAAAAAAAAAAAAAAAAAAAAAAAAAAAAAA111IIIIIIIIIIIIIII
AAAAAAAAAAAAAAAAAAAAAAAAAAAAAAAAAAAAAAAAAAAAAAA111IIIIIIIIIIIIII
AAAAAAAAAAAAAAAAAAAAAAAAAAAAAAAAAAAAAAAAAAAAAAAA111IIIIIIIIIIIII
AAAAAAAAAAAAAAAAAAAAAAAAAAAAAAAAAAAAAAAAAAAAAAAAA111IIIIIIIIIIII
AAAAAAAAAAAAAAAAAAAAAAAAAAAAAAAAAAAAAAAAAAAAAAAAAA111IIIIIIIIIII
AAAAAAAAAAAAAAAAAAAAAAAAAAAAAAAAAAAAAAAAAAAAAAAAAAA111IIIIIIIIII
AAAAAAAAAAAAAAAAAAAAAAAAAAAAAAAAAAAAAAAAAAAAAAAAAAAA111IIIIIIIII
AAAAAAAAAAAAAAAAAAAAAAAAAAAAAAAAAAAAAAAAAAAAAAAAAAAAA111IIIIIIII
AAAAAAAAAAAAAAAAAAAAAAAAAAAAAAAAAAAAAAAAAAAAAAAAAAAAAA111IIIIIII
AAAAAAAAAAAAAAAAAAAAAAAAAAAAAAAAAAAAAAAAAAAAAAAAAAAAAAA111IIIIII
AAAAAAAAAAAAAAAAAAAAAAAAAAAAAAAAAAAAAAAAAAAAAAAAAAAAAAAA111IIIII
AAAAAAAAAAAAAAAAAAAAAAAAAAAAAAAAAAAAAAAAAAAAAAAAAAAAAAAAA111IIII
AAAAAAAAAAAAAAAAAAAAAAAAAAAAAAAAAAAAAAAAAAAAAAAAAAAAAAAAAA111III
AAAAAAAAAAAAAAAAAAAAAAAAAAAAAAAAAAAAAAAAAAAAAAAAAAAAAAAAAAA111II
AAAAAAAAAAAAAAAAAAAAAAAAAAAAAAAAAAAAAAAAAAAAAAAAAAAAAAAAAAAA111I
AAAAAAAAAAAAAAAAAAAAAAAAAAAAAAAAAAAAAAAAAAAAAAAAAAAAAAAAAAAAA111
AAAAAAAAAAAAAAAAAAAAAAAAAAAAAAAAAAAAAAAAAAAAAAAAAAAAAAAAAAAAAA11
AAAAAAAAAAAAAAAAAAAAAAAAAAAAAAAAAAAAAAAAAAAAAAAAAAAAAAAAAAAAAAA1
AAAAAAAAAAAAAAAAAAAAAAAAAAAAAAAAAAAAAAAAAAAAAAAAAAAAAAAAAAAAAAAA
[MLOP] Prefetch Degree Mean: 2.98933
[MLOP] Prefetch Degree SD: 0.162951
[MLOP] Max Score Left Mean (%): 92.4864
[MLOP] Max Score Left SD (%): 4.86573
[MLOP] Max Score Right Mean (%): 99.1291
[MLOP] Max Score Right SD (%): 1.89224
LLC TOTAL     ACCESS:    4165300  HIT:    1380578  MISS:    2784722  HIT %:    33.1447  MISS %:    66.8553   MPKI: 13.9236
LLC LOAD      ACCESS:     311354  HIT:     239529  MISS:      71825  HIT %:    76.9314  MISS %:    23.0686   MPKI: 0.359125
LLC RFO       ACCESS:    1190761  HIT:          0  MISS:    1190761  HIT %:          0  MISS %:        100   MPKI: 5.9538
LLC PREFETCH  ACCESS:    1464383  HIT:          0  MISS:    1464383  HIT %:          0  MISS %:        100   MPKI: 7.32191
LLC WRITEBACK ACCESS:    1192172  HIT:    1139864  MISS:      52308  HIT %:    95.6124  MISS %:    4.38762   MPKI: 0.26154

RAW hits: 13098322
Loads Generated: 58645966
Loads sent to L1D: 45547643
Stores Generated: 36649031
Stores sent to L1D: 36649063

CPU 2 cumulative IPC: 0.660677 instructions: 200303931 cycles: 303179969
ITLB TOTAL     ACCESS:   25310808  HIT:   25310808  MISS:          0  HIT %:        100  MISS %:          0   MPKI: 0
ITLB LOAD      ACCESS:          0  HIT:          0  MISS:          0  HIT %:       -nan  MISS %:       -nan   MPKI: 0
ITLB RFO       ACCESS:          0  HIT:          0  MISS:          0  HIT %:       -nan  MISS %:       -nan   MPKI: 0
ITLB PREFETCH  ACCESS:          0  HIT:          0  MISS:          0  HIT %:       -nan  MISS %:       -nan   MPKI: 0
ITLB WRITEBACK ACCESS:          0  HIT:          0  MISS:          0  HIT %:       -nan  MISS %:       -nan   MPKI: 0
DTLB TOTAL     ACCESS:   43966995  HIT:   43668894  MISS:     298101  HIT %:     99.322  MISS %:   0.678011   MPKI: 1.48824
DTLB LOAD      ACCESS:          0  HIT:          0  MISS:          0  HIT %:       -nan  MISS %:       -nan   MPKI: 0
DTLB RFO       ACCESS:          0  HIT:          0  MISS:          0  HIT %:       -nan  MISS %:       -nan   MPKI: 0
DTLB PREFETCH  ACCESS:          0  HIT:          0  MISS:          0  HIT %:       -nan  MISS %:       -nan   MPKI: 0
DTLB WRITEBACK ACCESS:          0  HIT:          0  MISS:          0  HIT %:       -nan  MISS %:       -nan   MPKI: 0
STLB TOTAL     ACCESS:    1453304  HIT:    1410635  MISS:      42669  HIT %:     97.064  MISS %:      2.936   MPKI: 0.213021
STLB LOAD      ACCESS:          0  HIT:          0  MISS:          0  HIT %:       -nan  MISS %:       -nan   MPKI: 0
STLB RFO       ACCESS:          0  HIT:          0  MISS:          0  HIT %:       -nan  MISS %:       -nan   MPKI: 0
STLB PREFETCH  ACCESS:          0  HIT:          0  MISS:          0  HIT %:       -nan  MISS %:       -nan   MPKI: 0
STLB WRITEBACK ACCESS:          0  HIT:          0  MISS:          0  HIT %:       -nan  MISS %:       -nan   MPKI: 0
L1D TOTAL     ACCESS:   62378812  HIT:   59114097  MISS:    3264715  HIT %:    94.7663  MISS %:    5.23369   MPKI: 16.2988
L1D LOAD      ACCESS:   31217615  HIT:   30479794  MISS:     737821  HIT %:    97.6365  MISS %:    2.36348   MPKI: 3.68351
L1D RFO       ACCESS:   29831834  HIT:   28634303  MISS:    1197531  HIT %:    95.9857  MISS %:    4.01427   MPKI: 5.97857
L1D PREFETCH  ACCESS:    1329363  HIT:          0  MISS:    1329363  HIT %:          0  MISS %:        100   MPKI: 6.63673
L1D WRITEBACK ACCESS:          0  HIT:          0  MISS:          0  HIT %:       -nan  MISS %:       -nan   MPKI: 0
L1I TOTAL     ACCESS:   28921742  HIT:   28921742  MISS:          0  HIT %:        100  MISS %:          0   MPKI: 0
L1I LOAD      ACCESS:   28921742  HIT:   28921742  MISS:          0  HIT %:        100  MISS %:          0   MPKI: 0
L1I RFO       ACCESS:          0  HIT:          0  MISS:          0  HIT %:       -nan  MISS %:       -nan   MPKI: 0
L1I PREFETCH  ACCESS:          0  HIT:          0  MISS:          0  HIT %:       -nan  MISS %:       -nan   MPKI: 0
L1I WRITEBACK ACCESS:          0  HIT:          0  MISS:          0  HIT %:       -nan  MISS %:       -nan   MPKI: 0
L2C TOTAL     ACCESS:    4509168  HIT:    1464321  MISS:    3044847  HIT %:    32.4743  MISS %:    67.5257   MPKI: 15.2011
L2C LOAD      ACCESS:     600187  HIT:     287722  MISS:     312465  HIT %:    47.9387  MISS %:    52.0613   MPKI: 1.55995
L2C RFO       ACCESS:    1194837  HIT:       2264  MISS:    1192573  HIT %:   0.189482  MISS %:    99.8105   MPKI: 5.95382
L2C PREFETCH  ACCESS:    1466953  HIT:          0  MISS:    1466953  HIT %:          0  MISS %:        100   MPKI: 7.32364
L2C WRITEBACK ACCESS:    1204484  HIT:    1138168  MISS:      66316  HIT %:    94.4942  MISS %:    5.50576   MPKI: 0.331077
PSCL5 TOTAL     ACCESS:      42669  HIT:      42669  MISS:          0  HIT %:        100  MISS %:          0   MPKI: 0
PSCL5 LOAD      ACCESS:          0  HIT:          0  MISS:          0  HIT %:       -nan  MISS %:       -nan   MPKI: 0
PSCL5 RFO       ACCESS:          0  HIT:          0  MISS:          0  HIT %:       -nan  MISS %:       -nan   MPKI: 0
PSCL5 PREFETCH  ACCESS:          0  HIT:          0  MISS:          0  HIT %:       -nan  MISS %:       -nan   MPKI: 0
PSCL5 WRITEBACK ACCESS:          0  HIT:          0  MISS:          0  HIT %:       -nan  MISS %:       -nan   MPKI: 0
PSCL4 TOTAL     ACCESS:      42669  HIT:      42669  MISS:          0  HIT %:        100  MISS %:          0   MPKI: 0
PSCL4 LOAD      ACCESS:          0  HIT:          0  MISS:          0  HIT %:       -nan  MISS %:       -nan   MPKI: 0
PSCL4 RFO       ACCESS:          0  HIT:          0  MISS:          0  HIT %:       -nan  MISS %:       -nan   MPKI: 0
PSCL4 PREFETCH  ACCESS:          0  HIT:          0  MISS:          0  HIT %:       -nan  MISS %:       -nan   MPKI: 0
PSCL4 WRITEBACK ACCESS:          0  HIT:          0  MISS:          0  HIT %:       -nan  MISS %:       -nan   MPKI: 0
PSCL3 TOTAL     ACCESS:      34354  HIT:      34326  MISS:         28  HIT %:    99.9185  MISS %:  0.0815043   MPKI: 0.000139788
PSCL3 LOAD      ACCESS:          0  HIT:          0  MISS:          0  HIT %:       -nan  MISS %:       -nan   MPKI: 0
PSCL3 RFO       ACCESS:          0  HIT:          0  MISS:          0  HIT %:       -nan  MISS %:       -nan   MPKI: 0
PSCL3 PREFETCH  ACCESS:          0  HIT:          0  MISS:          0  HIT %:       -nan  MISS %:       -nan   MPKI: 0
PSCL3 WRITEBACK ACCESS:          0  HIT:          0  MISS:          0  HIT %:       -nan  MISS %:       -nan   MPKI: 0
PSCL2 TOTAL     ACCESS:      42669  HIT:      42586  MISS:         83  HIT %:    99.8055  MISS %:   0.194521   MPKI: 0.00041437
PSCL2 LOAD      ACCESS:          0  HIT:          0  MISS:          0  HIT %:       -nan  MISS %:       -nan   MPKI: 0
PSCL2 RFO       ACCESS:          0  HIT:          0  MISS:          0  HIT %:       -nan  MISS %:       -nan   MPKI: 0
PSCL2 PREFETCH  ACCESS:          0  HIT:          0  MISS:          0  HIT %:       -nan  MISS %:       -nan   MPKI: 0
PSCL2 WRITEBACK ACCESS:          0  HIT:          0  MISS:          0  HIT %:       -nan  MISS %:       -nan   MPKI: 0
=== CPU 2 L1D Prefetcher Statistics ===
[MLOP] History of tracked zone:
IIIIIIIIIIIIIIIIIIIIIIIIIIIIIIIIIIIIIIIIIIIIIIIIIIIIIIIIIIIIIIII
IIIIIIIIIIIIIIIIIIIIIIIIIA111IIIIIIIIIIIIIIIIIIIIIIIIIIIIIIIIIII
IIIIIIIIIIIIIIIIIIIIIIIIIAA111IIIIIIIIIIIIIIIIIIIIIIIIIIIIIIIIII
IIIIIIIIIIIIIIIIIIIIIIIIIAAA111IIIIIIIIIIIIIIIIIIIIIIIIIIIIIIIII
IIIIIIIIIIIIIIIIIIIIIIIIIAAAA111IIIIIIIIIIIIIIIIIIIIIIIIIIIIIIII
A111IIIIIIIIIIIIIIIIIIIIIAAAA111IIIIIIIIIIIIIIIIIIIIIIIIIIIIIIII
AA111IIIIIIIIIIIIIIIIIIIIAAAA111IIIIIIIIIIIIIIIIIIIIIIIIIIIIIIII
AAA111IIIIIIIIIIIIIIIIIIIAAAA111IIIIIIIIIIIIIIIIIIIIIIIIIIIIIIII
AAAA111IIIIIIIIIIIIIIIIIIAAAA111IIIIIIIIIIIIIIIIIIIIIIIIIIIIIIII
AAAAA111IIIIIIIIIIIIIIIIIAAAA111IIIIIIIIIIIIIIIIIIIIIIIIIIIIIIII
AAAAAA111IIIIIIIIIIIIIIIIAAAA111IIIIIIIIIIIIIIIIIIIIIIIIIIIIIIII
AAAAAAA111IIIIIIIIIIIIIIIAAAA111IIIIIIIIIIIIIIIIIIIIIIIIIIIIIIII
AAAAAAAA111IIIIIIIIIIIIIIAAAA111IIIIIIIIIIIIIIIIIIIIIIIIIIIIIIII
AAAAAAAAA111IIIIIIIIIIIIIAAAA111IIIIIIIIIIIIIIIIIIIIIIIIIIIIIIII
AAAAAAAAAA111IIIIIIIIIIIIAAAA111IIIIIIIIIIIIIIIIIIIIIIIIIIIIIIII
AAAAAAAAAAA111IIIIIIIIIIIAAAA111IIIIIIIIIIIIIIIIIIIIIIIIIIIIIIII
AAAAAAAAAAAA111IIIIIIIIIIAAAA111IIIIIIIIIIIIIIIIIIIIIIIIIIIIIIII
AAAAAAAAAAAAA111IIIIIIIIIAAAA111IIIIIIIIIIIIIIIIIIIIIIIIIIIIIIII
AAAAAAAAAAAAAA111IIIIIIIIAAAA111IIIIIIIIIIIIIIIIIIIIIIIIIIIIIIII
AAAAAAAAAAAAAAA111IIIIIIIAAAA111IIIIIIIIIIIIIIIIIIIIIIIIIIIIIIII
AAAAAAAAAAAAAAAA111IIIIIIAAAA111IIIIIIIIIIIIIIIIIIIIIIIIIIIIIIII
AAAAAAAAAAAAAAAAA111IIIIIAAAA111IIIIIIIIIIIIIIIIIIIIIIIIIIIIIIII
AAAAAAAAAAAAAAAAAA111IIIIAAAA111IIIIIIIIIIIIIIIIIIIIIIIIIIIIIIII
AAAAAAAAAAAAAAAAAAA111IIIAAAA111IIIIIIIIIIIIIIIIIIIIIIIIIIIIIIII
AAAAAAAAAAAAAAAAAAAA111IIAAAA111IIIIIIIIIIIIIIIIIIIIIIIIIIIIIIII
AAAAAAAAAAAAAAAAAAAAA111IAAAA111IIIIIIIIIIIIIIIIIIIIIIIIIIIIIIII
AAAAAAAAAAAAAAAAAAAAAA111AAAA111IIIIIIIIIIIIIIIIIIIIIIIIIIIIIIII
AAAAAAAAAAAAAAAAAAAAAAA11AAAA111IIIIIIIIIIIIIIIIIIIIIIIIIIIIIIII
AAAAAAAAAAAAAAAAAAAAAAAA1AAAA111IIIIIIIIIIIIIIIIIIIIIIIIIIIIIIII
AAAAAAAAAAAAAAAAAAAAAAAAAAAAA111IIIIIIIIIIIIIIIIIIIIIIIIIIIIIIII
AAAAAAAAAAAAAAAAAAAAAAAAAAAAA11A111IIIIIIIIIIIIIIIIIIIIIIIIIIIII
AAAAAAAAAAAAAAAAAAAAAAAAAAAAA11AA111IIIIIIIIIIIIIIIIIIIIIIIIIIII
AAAAAAAAAAAAAAAAAAAAAAAAAAAAA11AAA111IIIIIIIIIIIIIIIIIIIIIIIIIII
AAAAAAAAAAAAAAAAAAAAAAAAAAAAA11AAAA111IIIIIIIIIIIIIIIIIIIIIIIIII
AAAAAAAAAAAAAAAAAAAAAAAAAAAAA11AAAAA111IIIIIIIIIIIIIIIIIIIIIIIII
AAAAAAAAAAAAAAAAAAAAAAAAAAAAAA1AAAAA111IIIIIIIIIIIIIIIIIIIIIIIII
AAAAAAAAAAAAAAAAAAAAAAAAAAAAAA1AAAAAA111IIIIIIIIIIIIIIIIIIIIIIII
AAAAAAAAAAAAAAAAAAAAAAAAAAAAAAAAAAAAA111IIIIIIIIIIIIIIIIIIIIIIII
AAAAAAAAAAAAAAAAAAAAAAAAAAAAAAAAAAAAAA111IIIIIIIIIIIIIIIIIIIIIII
AAAAAAAAAAAAAAAAAAAAAAAAAAAAAAAAAAAAAAA111IIIIIIIIIIIIIIIIIIIIII
AAAAAAAAAAAAAAAAAAAAAAAAAAAAAAAAAAAAAAAA111IIIIIIIIIIIIIIIIIIIII
AAAAAAAAAAAAAAAAAAAAAAAAAAAAAAAAAAAAAAAAA111IIIIIIIIIIIIIIIIIIII
AAAAAAAAAAAAAAAAAAAAAAAAAAAAAAAAAAAAAAAAAA111IIIIIIIIIIIIIIIIIII
AAAAAAAAAAAAAAAAAAAAAAAAAAAAAAAAAAAAAAAAAAA111IIIIIIIIIIIIIIIIII
AAAAAAAAAAAAAAAAAAAAAAAAAAAAAAAAAAAAAAAAAAAA111IIIIIIIIIIIIIIIII
AAAAAAAAAAAAAAAAAAAAAAAAAAAAAAAAAAAAAAAAAAAAA111IIIIIIIIIIIIIIII
AAAAAAAAAAAAAAAAAAAAAAAAAAAAAAAAAAAAAAAAAAAAAA111IIIIIIIIIIIIIII
AAAAAAAAAAAAAAAAAAAAAAAAAAAAAAAAAAAAAAAAAAAAAAA111IIIIIIIIIIIIII
AAAAAAAAAAAAAAAAAAAAAAAAAAAAAAAAAAAAAAAAAAAAAAAA111IIIIIIIIIIIII
AAAAAAAAAAAAAAAAAAAAAAAAAAAAAAAAAAAAAAAAAAAAAAAAA111IIIIIIIIIIII
AAAAAAAAAAAAAAAAAAAAAAAAAAAAAAAAAAAAAAAAAAAAAAAAAA111IIIIIIIIIII
AAAAAAAAAAAAAAAAAAAAAAAAAAAAAAAAAAAAAAAAAAAAAAAAAAA111IIIIIIIIII
AAAAAAAAAAAAAAAAAAAAAAAAAAAAAAAAAAAAAAAAAAAAAAAAAAAA111IIIIIIIII
AAAAAAAAAAAAAAAAAAAAAAAAAAAAAAAAAAAAAAAAAAAAAAAAAAAAA111IIIIIIII
AAAAAAAAAAAAAAAAAAAAAAAAAAAAAAAAAAAAAAAAAAAAAAAAAAAAAA111IIIIIII
AAAAAAAAAAAAAAAAAAAAAAAAAAAAAAAAAAAAAAAAAAAAAAAAAAAAAAA111IIIIII
AAAAAAAAAAAAAAAAAAAAAAAAAAAAAAAAAAAAAAAAAAAAAAAAAAAAAAAA111IIIII
AAAAAAAAAAAAAAAAAAAAAAAAAAAAAAAAAAAAAAAAAAAAAAAAAAAAAAAAA111IIII
AAAAAAAAAAAAAAAAAAAAAAAAAAAAAAAAAAAAAAAAAAAAAAAAAAAAAAAAAA111III
AAAAAAAAAAAAAAAAAAAAAAAAAAAAAAAAAAAAAAAAAAAAAAAAAAAAAAAAAAA111II
AAAAAAAAAAAAAAAAAAAAAAAAAAAAAAAAAAAAAAAAAAAAAAAAAAAAAAAAAAAA111I
AAAAAAAAAAAAAAAAAAAAAAAAAAAAAAAAAAAAAAAAAAAAAAAAAAAAAAAAAAAAA111
AAAAAAAAAAAAAAAAAAAAAAAAAAAAAAAAAAAAAAAAAAAAAAAAAAAAAAAAAAAAAA11
AAAAAAAAAAAAAAAAAAAAAAAAAAAAAAAAAAAAAAAAAAAAAAAAAAAAAAAAAAAAAAA1
AAAAAAAAAAAAAAAAAAAAAAAAAAAAAAAAAAAAAAAAAAAAAAAAAAAAAAAAAAAAAAAA
[MLOP] Prefetch Degree Mean: 2.99467
[MLOP] Prefetch Degree SD: 0.193145
[MLOP] Max Score Left Mean (%): 92.5317
[MLOP] Max Score Left SD (%): 4.86865
[MLOP] Max Score Right Mean (%): 99.1328
[MLOP] Max Score Right SD (%): 1.90644
LLC TOTAL     ACCESS:    4172508  HIT:    1383988  MISS:    2788520  HIT %:    33.1692  MISS %:    66.8308   MPKI: 13.9214
LLC LOAD      ACCESS:     312465  HIT:     240756  MISS:      71709  HIT %:    77.0505  MISS %:    22.9495   MPKI: 0.358001
LLC RFO       ACCESS:    1192573  HIT:          0  MISS:    1192573  HIT %:          0  MISS %:        100   MPKI: 5.95382
LLC PREFETCH  ACCESS:    1466953  HIT:          0  MISS:    1466953  HIT %:          0  MISS %:        100   MPKI: 7.32364
LLC WRITEBACK ACCESS:    1193977  HIT:    1142138  MISS:      51839  HIT %:    95.6583  MISS %:    4.34171   MPKI: 0.258802

RAW hits: 13118318
Loads Generated: 58735106
Loads sent to L1D: 45616803
Stores Generated: 36704747
Stores sent to L1D: 36704747

CPU 3 cumulative IPC: 0.660198 instructions: 200158794 cycles: 303179969
ITLB TOTAL     ACCESS:   25291241  HIT:   25291241  MISS:          0  HIT %:        100  MISS %:          0   MPKI: 0
ITLB LOAD      ACCESS:          0  HIT:          0  MISS:          0  HIT %:       -nan  MISS %:       -nan   MPKI: 0
ITLB RFO       ACCESS:          0  HIT:          0  MISS:          0  HIT %:       -nan  MISS %:       -nan   MPKI: 0
ITLB PREFETCH  ACCESS:          0  HIT:          0  MISS:          0  HIT %:       -nan  MISS %:       -nan   MPKI: 0
ITLB WRITEBACK ACCESS:          0  HIT:          0  MISS:          0  HIT %:       -nan  MISS %:       -nan   MPKI: 0
DTLB TOTAL     ACCESS:   43929536  HIT:   43631432  MISS:     298104  HIT %:    99.3214  MISS %:   0.678596   MPKI: 1.48934
DTLB LOAD      ACCESS:          0  HIT:          0  MISS:          0  HIT %:       -nan  MISS %:       -nan   MPKI: 0
DTLB RFO       ACCESS:          0  HIT:          0  MISS:          0  HIT %:       -nan  MISS %:       -nan   MPKI: 0
DTLB PREFETCH  ACCESS:          0  HIT:          0  MISS:          0  HIT %:       -nan  MISS %:       -nan   MPKI: 0
DTLB WRITEBACK ACCESS:          0  HIT:          0  MISS:          0  HIT %:       -nan  MISS %:       -nan   MPKI: 0
STLB TOTAL     ACCESS:    1452590  HIT:    1409949  MISS:      42641  HIT %:    97.0645  MISS %:    2.93552   MPKI: 0.213036
STLB LOAD      ACCESS:          0  HIT:          0  MISS:          0  HIT %:       -nan  MISS %:       -nan   MPKI: 0
STLB RFO       ACCESS:          0  HIT:          0  MISS:          0  HIT %:       -nan  MISS %:       -nan   MPKI: 0
STLB PREFETCH  ACCESS:          0  HIT:          0  MISS:          0  HIT %:       -nan  MISS %:       -nan   MPKI: 0
STLB WRITEBACK ACCESS:          0  HIT:          0  MISS:          0  HIT %:       -nan  MISS %:       -nan   MPKI: 0
L1D TOTAL     ACCESS:   62330374  HIT:   59068464  MISS:    3261910  HIT %:    94.7667  MISS %:    5.23326   MPKI: 16.2966
L1D LOAD      ACCESS:   31193327  HIT:   30456431  MISS:     736896  HIT %:    97.6376  MISS %:    2.36235   MPKI: 3.68156
L1D RFO       ACCESS:   29808698  HIT:   28612032  MISS:    1196666  HIT %:    95.9855  MISS %:    4.01449   MPKI: 5.97858
L1D PREFETCH  ACCESS:    1328349  HIT:          1  MISS:    1328348  HIT %: 7.52814e-05  MISS %:    99.9999   MPKI: 6.63647
L1D WRITEBACK ACCESS:          0  HIT:          0  MISS:          0  HIT %:       -nan  MISS %:       -nan   MPKI: 0
L1I TOTAL     ACCESS:   28900205  HIT:   28900205  MISS:          0  HIT %:        100  MISS %:          0   MPKI: 0
L1I LOAD      ACCESS:   28900205  HIT:   28900205  MISS:          0  HIT %:        100  MISS %:          0   MPKI: 0
L1I RFO       ACCESS:          0  HIT:          0  MISS:          0  HIT %:       -nan  MISS %:       -nan   MPKI: 0
L1I PREFETCH  ACCESS:          0  HIT:          0  MISS:          0  HIT %:       -nan  MISS %:       -nan   MPKI: 0
L1I WRITEBACK ACCESS:          0  HIT:          0  MISS:          0  HIT %:       -nan  MISS %:       -nan   MPKI: 0
L2C TOTAL     ACCESS:    4505269  HIT:    1464335  MISS:    3040934  HIT %:    32.5027  MISS %:    67.4973   MPKI: 15.1926
L2C LOAD      ACCESS:     599754  HIT:     288196  MISS:     311558  HIT %:    48.0524  MISS %:    51.9476   MPKI: 1.55655
L2C RFO       ACCESS:    1193926  HIT:       2215  MISS:    1191711  HIT %:   0.185522  MISS %:    99.8145   MPKI: 5.95383
L2C PREFETCH  ACCESS:    1465448  HIT:          0  MISS:    1465448  HIT %:          0  MISS %:        100   MPKI: 7.32143
L2C WRITEBACK ACCESS:    1203458  HIT:    1137836  MISS:      65622  HIT %:    94.5472  MISS %:    5.45279   MPKI: 0.32785
PSCL5 TOTAL     ACCESS:      42641  HIT:      42641  MISS:          0  HIT %:        100  MISS %:          0   MPKI: 0
PSCL5 LOAD      ACCESS:          0  HIT:          0  MISS:          0  HIT %:       -nan  MISS %:       -nan   MPKI: 0
PSCL5 RFO       ACCESS:          0  HIT:          0  MISS:          0  HIT %:       -nan  MISS %:       -nan   MPKI: 0
PSCL5 PREFETCH  ACCESS:          0  HIT:          0  MISS:          0  HIT %:       -nan  MISS %:       -nan   MPKI: 0
PSCL5 WRITEBACK ACCESS:          0  HIT:          0  MISS:          0  HIT %:       -nan  MISS %:       -nan   MPKI: 0
PSCL4 TOTAL     ACCESS:      42641  HIT:      42641  MISS:          0  HIT %:        100  MISS %:          0   MPKI: 0
PSCL4 LOAD      ACCESS:          0  HIT:          0  MISS:          0  HIT %:       -nan  MISS %:       -nan   MPKI: 0
PSCL4 RFO       ACCESS:          0  HIT:          0  MISS:          0  HIT %:       -nan  MISS %:       -nan   MPKI: 0
PSCL4 PREFETCH  ACCESS:          0  HIT:          0  MISS:          0  HIT %:       -nan  MISS %:       -nan   MPKI: 0
PSCL4 WRITEBACK ACCESS:          0  HIT:          0  MISS:          0  HIT %:       -nan  MISS %:       -nan   MPKI: 0
PSCL3 TOTAL     ACCESS:      33626  HIT:      33596  MISS:         30  HIT %:    99.9108  MISS %:  0.0892167   MPKI: 0.000149881
PSCL3 LOAD      ACCESS:          0  HIT:          0  MISS:          0  HIT %:       -nan  MISS %:       -nan   MPKI: 0
PSCL3 RFO       ACCESS:          0  HIT:          0  MISS:          0  HIT %:       -nan  MISS %:       -nan   MPKI: 0
PSCL3 PREFETCH  ACCESS:          0  HIT:          0  MISS:          0  HIT %:       -nan  MISS %:       -nan   MPKI: 0
PSCL3 WRITEBACK ACCESS:          0  HIT:          0  MISS:          0  HIT %:       -nan  MISS %:       -nan   MPKI: 0
PSCL2 TOTAL     ACCESS:      42641  HIT:      42556  MISS:         85  HIT %:    99.8007  MISS %:   0.199339   MPKI: 0.000424663
PSCL2 LOAD      ACCESS:          0  HIT:          0  MISS:          0  HIT %:       -nan  MISS %:       -nan   MPKI: 0
PSCL2 RFO       ACCESS:          0  HIT:          0  MISS:          0  HIT %:       -nan  MISS %:       -nan   MPKI: 0
PSCL2 PREFETCH  ACCESS:          0  HIT:          0  MISS:          0  HIT %:       -nan  MISS %:       -nan   MPKI: 0
PSCL2 WRITEBACK ACCESS:          0  HIT:          0  MISS:          0  HIT %:       -nan  MISS %:       -nan   MPKI: 0
=== CPU 3 L1D Prefetcher Statistics ===
[MLOP] History of tracked zone:
IIIIIIIIIIIIIIIIIIIIIIIIIIIIIIIIIIIIIIIIIIIIIIIIIIIIIIIIIIIIIIII
IIIIIIIIIIIIIIIIIIIIIIIIIA111IIIIIIIIIIIIIIIIIIIIIIIIIIIIIIIIIII
IIIIIIIIIIIIIIIIIIIIIIIIIAA111IIIIIIIIIIIIIIIIIIIIIIIIIIIIIIIIII
IIIIIIIIIIIIIIIIIIIIIIIIIAAA111IIIIIIIIIIIIIIIIIIIIIIIIIIIIIIIII
IIIIIIIIIIIIIIIIIIIIIIIIIAAAA111IIIIIIIIIIIIIIIIIIIIIIIIIIIIIIII
A111IIIIIIIIIIIIIIIIIIIIIAAAA111IIIIIIIIIIIIIIIIIIIIIIIIIIIIIIII
AA111IIIIIIIIIIIIIIIIIIIIAAAA111IIIIIIIIIIIIIIIIIIIIIIIIIIIIIIII
AAA111IIIIIIIIIIIIIIIIIIIAAAA111IIIIIIIIIIIIIIIIIIIIIIIIIIIIIIII
AAAA111IIIIIIIIIIIIIIIIIIAAAA111IIIIIIIIIIIIIIIIIIIIIIIIIIIIIIII
AAAAA111IIIIIIIIIIIIIIIIIAAAA111IIIIIIIIIIIIIIIIIIIIIIIIIIIIIIII
AAAAAA111IIIIIIIIIIIIIIIIAAAA111IIIIIIIIIIIIIIIIIIIIIIIIIIIIIIII
AAAAAAA111IIIIIIIIIIIIIIIAAAA111IIIIIIIIIIIIIIIIIIIIIIIIIIIIIIII
AAAAAAAA111IIIIIIIIIIIIIIAAAA111IIIIIIIIIIIIIIIIIIIIIIIIIIIIIIII
AAAAAAAAA111IIIIIIIIIIIIIAAAA111IIIIIIIIIIIIIIIIIIIIIIIIIIIIIIII
AAAAAAAAAA111IIIIIIIIIIIIAAAA111IIIIIIIIIIIIIIIIIIIIIIIIIIIIIIII
AAAAAAAAAAA111IIIIIIIIIIIAAAA111IIIIIIIIIIIIIIIIIIIIIIIIIIIIIIII
AAAAAAAAAAAA111IIIIIIIIIIAAAA111IIIIIIIIIIIIIIIIIIIIIIIIIIIIIIII
AAAAAAAAAAAAA111IIIIIIIIIAAAA111IIIIIIIIIIIIIIIIIIIIIIIIIIIIIIII
AAAAAAAAAAAAAA111IIIIIIIIAAAA111IIIIIIIIIIIIIIIIIIIIIIIIIIIIIIII
AAAAAAAAAAAAAAA111IIIIIIIAAAA111IIIIIIIIIIIIIIIIIIIIIIIIIIIIIIII
AAAAAAAAAAAAAAAA111IIIIIIAAAA111IIIIIIIIIIIIIIIIIIIIIIIIIIIIIIII
AAAAAAAAAAAAAAAAA111IIIIIAAAA111IIIIIIIIIIIIIIIIIIIIIIIIIIIIIIII
AAAAAAAAAAAAAAAAAA111IIIIAAAA111IIIIIIIIIIIIIIIIIIIIIIIIIIIIIIII
AAAAAAAAAAAAAAAAAAA111IIIAAAA111IIIIIIIIIIIIIIIIIIIIIIIIIIIIIIII
AAAAAAAAAAAAAAAAAAAA111IIAAAA111IIIIIIIIIIIIIIIIIIIIIIIIIIIIIIII
AAAAAAAAAAAAAAAAAAAAA111IAAAA111IIIIIIIIIIIIIIIIIIIIIIIIIIIIIIII
AAAAAAAAAAAAAAAAAAAAAA111AAAA111IIIIIIIIIIIIIIIIIIIIIIIIIIIIIIII
AAAAAAAAAAAAAAAAAAAAAAA11AAAA111IIIIIIIIIIIIIIIIIIIIIIIIIIIIIIII
AAAAAAAAAAAAAAAAAAAAAAAA1AAAA111IIIIIIIIIIIIIIIIIIIIIIIIIIIIIIII
AAAAAAAAAAAAAAAAAAAAAAAAAAAAA111IIIIIIIIIIIIIIIIIIIIIIIIIIIIIIII
AAAAAAAAAAAAAAAAAAAAAAAAAAAAA11A111IIIIIIIIIIIIIIIIIIIIIIIIIIIII
AAAAAAAAAAAAAAAAAAAAAAAAAAAAA11AA111IIIIIIIIIIIIIIIIIIIIIIIIIIII
AAAAAAAAAAAAAAAAAAAAAAAAAAAAA11AAA111IIIIIIIIIIIIIIIIIIIIIIIIIII
AAAAAAAAAAAAAAAAAAAAAAAAAAAAA11AAAA111IIIIIIIIIIIIIIIIIIIIIIIIII
AAAAAAAAAAAAAAAAAAAAAAAAAAAAA11AAAAA111IIIIIIIIIIIIIIIIIIIIIIIII
AAAAAAAAAAAAAAAAAAAAAAAAAAAAAA1AAAAA111IIIIIIIIIIIIIIIIIIIIIIIII
AAAAAAAAAAAAAAAAAAAAAAAAAAAAAA1AAAAAA111IIIIIIIIIIIIIIIIIIIIIIII
AAAAAAAAAAAAAAAAAAAAAAAAAAAAAAAAAAAAA111IIIIIIIIIIIIIIIIIIIIIIII
AAAAAAAAAAAAAAAAAAAAAAAAAAAAAAAAAAAAAA111IIIIIIIIIIIIIIIIIIIIIII
AAAAAAAAAAAAAAAAAAAAAAAAAAAAAAAAAAAAAAA111IIIIIIIIIIIIIIIIIIIIII
AAAAAAAAAAAAAAAAAAAAAAAAAAAAAAAAAAAAAAAA111IIIIIIIIIIIIIIIIIIIII
AAAAAAAAAAAAAAAAAAAAAAAAAAAAAAAAAAAAAAAAA111IIIIIIIIIIIIIIIIIIII
AAAAAAAAAAAAAAAAAAAAAAAAAAAAAAAAAAAAAAAAAA111IIIIIIIIIIIIIIIIIII
AAAAAAAAAAAAAAAAAAAAAAAAAAAAAAAAAAAAAAAAAAA111IIIIIIIIIIIIIIIIII
AAAAAAAAAAAAAAAAAAAAAAAAAAAAAAAAAAAAAAAAAAAA111IIIIIIIIIIIIIIIII
AAAAAAAAAAAAAAAAAAAAAAAAAAAAAAAAAAAAAAAAAAAAA111IIIIIIIIIIIIIIII
AAAAAAAAAAAAAAAAAAAAAAAAAAAAAAAAAAAAAAAAAAAAAA111IIIIIIIIIIIIIII
AAAAAAAAAAAAAAAAAAAAAAAAAAAAAAAAAAAAAAAAAAAAAAA111IIIIIIIIIIIIII
AAAAAAAAAAAAAAAAAAAAAAAAAAAAAAAAAAAAAAAAAAAAAAAA111IIIIIIIIIIIII
AAAAAAAAAAAAAAAAAAAAAAAAAAAAAAAAAAAAAAAAAAAAAAAAA111IIIIIIIIIIII
AAAAAAAAAAAAAAAAAAAAAAAAAAAAAAAAAAAAAAAAAAAAAAAAAA111IIIIIIIIIII
AAAAAAAAAAAAAAAAAAAAAAAAAAAAAAAAAAAAAAAAAAAAAAAAAAA111IIIIIIIIII
AAAAAAAAAAAAAAAAAAAAAAAAAAAAAAAAAAAAAAAAAAAAAAAAAAAA111IIIIIIIII
AAAAAAAAAAAAAAAAAAAAAAAAAAAAAAAAAAAAAAAAAAAAAAAAAAAAA111IIIIIIII
AAAAAAAAAAAAAAAAAAAAAAAAAAAAAAAAAAAAAAAAAAAAAAAAAAAAAA111IIIIIII
AAAAAAAAAAAAAAAAAAAAAAAAAAAAAAAAAAAAAAAAAAAAAAAAAAAAAAA111IIIIII
AAAAAAAAAAAAAAAAAAAAAAAAAAAAAAAAAAAAAAAAAAAAAAAAAAAAAAAA111IIIII
AAAAAAAAAAAAAAAAAAAAAAAAAAAAAAAAAAAAAAAAAAAAAAAAAAAAAAAAA111IIII
AAAAAAAAAAAAAAAAAAAAAAAAAAAAAAAAAAAAAAAAAAAAAAAAAAAAAAAAAA111III
AAAAAAAAAAAAAAAAAAAAAAAAAAAAAAAAAAAAAAAAAAAAAAAAAAAAAAAAAAA111II
AAAAAAAAAAAAAAAAAAAAAAAAAAAAAAAAAAAAAAAAAAAAAAAAAAAAAAAAAAAA111I
AAAAAAAAAAAAAAAAAAAAAAAAAAAAAAAAAAAAAAAAAAAAAAAAAAAAAAAAAAAAA111
AAAAAAAAAAAAAAAAAAAAAAAAAAAAAAAAAAAAAAAAAAAAAAAAAAAAAAAAAAAAAA11
AAAAAAAAAAAAAAAAAAAAAAAAAAAAAAAAAAAAAAAAAAAAAAAAAAAAAAAAAAAAAAA1
AAAAAAAAAAAAAAAAAAAAAAAAAAAAAAAAAAAAAAAAAAAAAAAAAAAAAAAAAAAAAAAA
[MLOP] Prefetch Degree Mean: 2.992
[MLOP] Prefetch Degree SD: 0.171083
[MLOP] Max Score Left Mean (%): 92.4336
[MLOP] Max Score Left SD (%): 4.87462
[MLOP] Max Score Right Mean (%): 99.1403
[MLOP] Max Score Right SD (%): 1.94463
LLC TOTAL     ACCESS:    4168307  HIT:    1381117  MISS:    2787190  HIT %:    33.1338  MISS %:    66.8662   MPKI: 13.9249
LLC LOAD      ACCESS:     311558  HIT:     239523  MISS:      72035  HIT %:    76.8791  MISS %:    23.1209   MPKI: 0.359889
LLC RFO       ACCESS:    1191711  HIT:          0  MISS:    1191711  HIT %:          0  MISS %:        100   MPKI: 5.95383
LLC PREFETCH  ACCESS:    1465448  HIT:          0  MISS:    1465448  HIT %:          0  MISS %:        100   MPKI: 7.32143
LLC WRITEBACK ACCESS:    1192995  HIT:    1140452  MISS:      52543  HIT %:    95.5957  MISS %:    4.40429   MPKI: 0.262507

RAW hits: 13108306
Loads Generated: 58692529
Loads sent to L1D: 45584223
Stores Generated: 36678141
Stores sent to L1D: 36678149

Region of Interest Statistics

CPU 0 cumulative IPC: 0.659987 instructions: 200000003 cycles: 303036318
ITLB TOTAL     ACCESS:   25271130  HIT:   25271130  MISS:          0  HIT %:        100  MISS %:          0   MPKI: 0
ITLB LOAD TRANSLATION ACCESS:   25271130  HIT:   25271130  MISS:          0  HIT %:        100  MISS %:          0   MPKI: 0
ITLB PREFETCH  REQUESTED:          0  ISSUED:          0  USEFUL:          0  USELESS:          0
ITLB USEFUL LOAD PREFETCHES:          0 PREFETCH ISSUED TO LOWER LEVEL:          0  ACCURACY: -nan
ITLB TIMELY PREFETCHES:          0 LATE PREFETCHES: 0 DROPPED PREFETCHES: 0
ITLB PREFETCHES SAME FILL-ORIGIN LEVEL: 0 DIFFERENT FILL-ORIGIN LEVEL: 0
ITLB AVERAGE MISS LATENCY: -nan cycles
ITLB RQ	ACCESS:   28888132	FORWARD:          0	MERGED:    3605721	TO_CACHE:   25282411

DTLB TOTAL     ACCESS:   43892067  HIT:   43594210  MISS:     297857  HIT %:    99.3214  MISS %:   0.678612   MPKI: 1.48928
DTLB LOAD TRANSLATION ACCESS:   43892067  HIT:   43594210  MISS:     297857  HIT %:    99.3214  MISS %:   0.678612   MPKI: 1.48928
DTLB PREFETCH  REQUESTED:          0  ISSUED:          0  USEFUL:          0  USELESS:          0
DTLB USEFUL LOAD PREFETCHES:          0 PREFETCH ISSUED TO LOWER LEVEL:          0  ACCURACY: -nan
DTLB TIMELY PREFETCHES:          0 LATE PREFETCHES: 0 DROPPED PREFETCHES: 0
DTLB PREFETCHES SAME FILL-ORIGIN LEVEL: 0 DIFFERENT FILL-ORIGIN LEVEL: 0
DTLB AVERAGE MISS LATENCY: 126.353 cycles
DTLB RQ	ACCESS:   67249681	FORWARD:          0	MERGED:   23278073	TO_CACHE:   43971608

STLB TOTAL     ACCESS:    1451733  HIT:    1409121  MISS:      42612  HIT %:    97.0647  MISS %:    2.93525   MPKI: 0.21306
STLB LOAD TRANSLATION ACCESS:     297857  HIT:     255247  MISS:      42610  HIT %:    85.6945  MISS %:    14.3055   MPKI: 0.21305
STLB TRANSLATION FROM L1D PREFETCHER ACCESS:    1153876  HIT:    1153874  MISS:          2  HIT %:    99.9998  MISS %: 0.000173329   MPKI: 1e-05
STLB PREFETCH  REQUESTED:          0  ISSUED:          0  USEFUL:          2  USELESS:          0
STLB USEFUL LOAD PREFETCHES:          2 PREFETCH ISSUED TO LOWER LEVEL:          0  ACCURACY: inf
STLB TIMELY PREFETCHES:          2 LATE PREFETCHES: 0 DROPPED PREFETCHES: 0
STLB PREFETCHES SAME FILL-ORIGIN LEVEL: 0 DIFFERENT FILL-ORIGIN LEVEL: 0
STLB AVERAGE MISS LATENCY: 813.266 cycles
STLB RQ	ACCESS:    1762961	FORWARD:          0	MERGED:     310461	TO_CACHE:    1452500

STLB Hit, L1D data hit: 0
STLB Hit, L2C data hit: 0
STLB Hit, LLC data hit: 0
STLB Hit, LLC data miss: 0
STLB STLB hints to L2: 0
L1D TOTAL     ACCESS:   62280965  HIT:   59021395  MISS:    3259570  HIT %:    94.7663  MISS %:    5.23365   MPKI: 16.2978
L1D LOAD      ACCESS:   31167038  HIT:   30430598  MISS:     736440  HIT %:    97.6371  MISS %:    2.36288   MPKI: 3.6822
L1D RFO       ACCESS:   29786679  HIT:   28590797  MISS:    1195882  HIT %:    95.9852  MISS %:    4.01482   MPKI: 5.97941
L1D PREFETCH  ACCESS:    1327248  HIT:          0  MISS:    1327248  HIT %:          0  MISS %:        100   MPKI: 6.63624
L1D PREFETCH  REQUESTED:    2929658  ISSUED:    2929658  USEFUL:    1325826  USELESS:       2021
L1D USEFUL LOAD PREFETCHES:    1325826 PREFETCH ISSUED TO LOWER LEVEL:    1464792  ACCURACY: 90.5129
L1D TIMELY PREFETCHES:    1325826 LATE PREFETCHES: 136948 DROPPED PREFETCHES: 0
L1D PREFETCHES SAME FILL-ORIGIN LEVEL: 1464792 DIFFERENT FILL-ORIGIN LEVEL: 0
L1D AVERAGE MISS LATENCY: 1027.08 cycles
L1D RQ	ACCESS:   45568714	FORWARD:          0	MERGED:   13040211	TO_CACHE:   31277627
L1D WQ	ACCESS:   36665307	FORWARD:    1250876	MERGED:     693253	TO_CACHE:   35972054
L1D PQ	ACCESS:    1464829	FORWARD:          0	MERGED:          0	TO_CACHE:    1464829

L1D UNIQUE REGIONS ACCESSED: 0
L1D REGIONS CONFLICTS: 0
L1D Cross Page Prefetch Requests: 0
L1D Same Page Prefetch Requests: 1842410
L1D ROI Sum of L1D PQ occupancy: 24386848
L1D PREFETCHES PUSHED FROM L2C: 0
L1I TOTAL     ACCESS:   28875247  HIT:   28875247  MISS:          0  HIT %:        100  MISS %:          0   MPKI: 0
L1I LOAD      ACCESS:   28875247  HIT:   28875247  MISS:          0  HIT %:        100  MISS %:          0   MPKI: 0
L1I PREFETCH  REQUESTED:          0  ISSUED:          0  USEFUL:          0  USELESS:          0
L1I USEFUL LOAD PREFETCHES:          0 PREFETCH ISSUED TO LOWER LEVEL:          0  ACCURACY: -nan
L1I TIMELY PREFETCHES:          0 LATE PREFETCHES: 0 DROPPED PREFETCHES: 0
L1I PREFETCHES SAME FILL-ORIGIN LEVEL: 0 DIFFERENT FILL-ORIGIN LEVEL: 0
L1I AVERAGE MISS LATENCY: -nan cycles
L1I RQ	ACCESS:   42895119	FORWARD:          0	MERGED:   14006987	TO_CACHE:   28888132

BTB TOTAL     ACCESS:    1687998  HIT:    1687995  MISS:          3  HIT %:    99.9998  MISS %: 0.000177725   MPKI: 1.5e-05
BTB BRANCH_DIRECT_JUMP	ACCESS:          0  HIT:          0  MISS:          0
BTB BRANCH_INDIRECT	ACCESS:          0  HIT:          0  MISS:          0
BTB BRANCH_CONDITIONAL	ACCESS:    1687998  HIT:    1687995  MISS:          3
BTB BRANCH_DIRECT_CALL	ACCESS:          0  HIT:          0  MISS:          0
BTB BRANCH_INDIRECT_CALL	ACCESS:          0  HIT:          0  MISS:          0
BTB BRANCH_RETURN	ACCESS:          0  HIT:          0  MISS:          0
BTB BRANCH_OTHER ACCESS:          0  HIT:          0  MISS:          0

L2C TOTAL     ACCESS:    4501977  HIT:    1463487  MISS:    3038490  HIT %:    32.5077  MISS %:    67.4923   MPKI: 15.1924
L2C LOAD      ACCESS:     599518  HIT:     287689  MISS:     311829  HIT %:    47.9867  MISS %:    52.0133   MPKI: 1.55914
L2C DATA LOAD MPKI: 1.55914
L2C INSTRUCTION LOAD MPKI: 0
L2C RFO       ACCESS:    1193013  HIT:       2250  MISS:    1190763  HIT %:   0.188598  MISS %:    99.8114   MPKI: 5.95381
L2C PREFETCH  ACCESS:    1464133  HIT:          0  MISS:    1464133  HIT %:          0  MISS %:        100   MPKI: 7.32066
L2C DATA PREFETCH MPKI: 7.32066
L2C INSTRUCTION PREFETCH MPKI: 0
L2C WRITEBACK ACCESS:    1202659  HIT:    1137572  MISS:      65087  HIT %:    94.5881  MISS %:    5.41192   MPKI: 0.325435
L2C LOAD TRANSLATION ACCESS:      42650  HIT:      35976  MISS:       6674  HIT %:    84.3517  MISS %:    15.6483   MPKI: 0.03337
L2C TRANSLATION FROM L1D PREFETCHER ACCESS:          4  HIT:          0  MISS:          4  HIT %:          0  MISS %:        100   MPKI: 2e-05
L2C PREFETCH  REQUESTED:          0  ISSUED:          0  USEFUL:     261354  USELESS:    1202937
L2C USEFUL LOAD PREFETCHES:     261354 PREFETCH ISSUED TO LOWER LEVEL:    1464792  ACCURACY: 17.8424
L2C TIMELY PREFETCHES:     261354 LATE PREFETCHES: 0 DROPPED PREFETCHES: 0
L2C PREFETCHES SAME FILL-ORIGIN LEVEL: 0 DIFFERENT FILL-ORIGIN LEVEL: 0
L2C AVERAGE MISS LATENCY: 1188.72 cycles
L2C RQ	ACCESS:    1838894	FORWARD:          0	MERGED:          0	TO_CACHE:    1835988
L2C WQ	ACCESS:    1203188	FORWARD:       2906	MERGED:          0	TO_CACHE:    1203188
L2C PQ	ACCESS:    1464792	FORWARD:          0	MERGED:          0	TO_CACHE:    1464792

L2C Instructions Evicting Data 0
L2C Translations Evicting Data 6633
L2C Data Evicting Data 2961580
L2C Instructions Evicting Instructions 0
L2C Translations Evicting Instructions 0
L2C Data Evicting Instructions 0
L2C Instructions Evicting Translations 0
L2C Translations Evicting Translations 50
L2C Data Evicting Translations 6465
L2C Dense regions hint from L2: 0
PSCL5 TOTAL     ACCESS:      42612  HIT:      42612  MISS:          0  HIT %:        100  MISS %:          0   MPKI: 0
PSCL5 LOAD TRANSLATION ACCESS:      42610  HIT:      42610  MISS:          0  HIT %:        100  MISS %:          0   MPKI: 0
PSCL5 TRANSLATION FROM L1D PREFETCHER ACCESS:          2  HIT:          2  MISS:          0  HIT %:        100  MISS %:          0   MPKI: 0
PSCL5 PREFETCH  REQUESTED:          0  ISSUED:          0  USEFUL:          0  USELESS:          0
PSCL5 USEFUL LOAD PREFETCHES:          0 PREFETCH ISSUED TO LOWER LEVEL:          0  ACCURACY: -nan
PSCL5 TIMELY PREFETCHES:          0 LATE PREFETCHES: 0 DROPPED PREFETCHES: 0
PSCL5 PREFETCHES SAME FILL-ORIGIN LEVEL: 0 DIFFERENT FILL-ORIGIN LEVEL: 0

PSCL4 TOTAL     ACCESS:      42612  HIT:      42612  MISS:          0  HIT %:        100  MISS %:          0   MPKI: 0
PSCL4 LOAD TRANSLATION ACCESS:      42610  HIT:      42610  MISS:          0  HIT %:        100  MISS %:          0   MPKI: 0
PSCL4 TRANSLATION FROM L1D PREFETCHER ACCESS:          2  HIT:          2  MISS:          0  HIT %:        100  MISS %:          0   MPKI: 0
PSCL4 PREFETCH  REQUESTED:          0  ISSUED:          0  USEFUL:          0  USELESS:          0
PSCL4 USEFUL LOAD PREFETCHES:          0 PREFETCH ISSUED TO LOWER LEVEL:          0  ACCURACY: -nan
PSCL4 TIMELY PREFETCHES:          0 LATE PREFETCHES: 0 DROPPED PREFETCHES: 0
PSCL4 PREFETCHES SAME FILL-ORIGIN LEVEL: 0 DIFFERENT FILL-ORIGIN LEVEL: 0

PSCL3 TOTAL     ACCESS:      33555  HIT:      33525  MISS:         30  HIT %:    99.9106  MISS %:  0.0894055   MPKI: 0.00015
PSCL3 LOAD TRANSLATION ACCESS:      33554  HIT:      33524  MISS:         30  HIT %:    99.9106  MISS %:  0.0894081   MPKI: 0.00015
PSCL3 TRANSLATION FROM L1D PREFETCHER ACCESS:          1  HIT:          1  MISS:          0  HIT %:        100  MISS %:          0   MPKI: 0
PSCL3 PREFETCH  REQUESTED:          0  ISSUED:          0  USEFUL:          0  USELESS:          0
PSCL3 USEFUL LOAD PREFETCHES:          0 PREFETCH ISSUED TO LOWER LEVEL:          0  ACCURACY: -nan
PSCL3 TIMELY PREFETCHES:          0 LATE PREFETCHES: 0 DROPPED PREFETCHES: 0
PSCL3 PREFETCHES SAME FILL-ORIGIN LEVEL: 0 DIFFERENT FILL-ORIGIN LEVEL: 0

PSCL2 TOTAL     ACCESS:      42612  HIT:      42527  MISS:         85  HIT %:    99.8005  MISS %:   0.199474   MPKI: 0.000425
PSCL2 LOAD TRANSLATION ACCESS:      42611  HIT:      42526  MISS:         85  HIT %:    99.8005  MISS %:   0.199479   MPKI: 0.000425
PSCL2 TRANSLATION FROM L1D PREFETCHER ACCESS:          1  HIT:          1  MISS:          0  HIT %:        100  MISS %:          0   MPKI: 0
PSCL2 PREFETCH  REQUESTED:          0  ISSUED:          0  USEFUL:          0  USELESS:          0
PSCL2 USEFUL LOAD PREFETCHES:          0 PREFETCH ISSUED TO LOWER LEVEL:          0  ACCURACY: -nan
PSCL2 TIMELY PREFETCHES:          0 LATE PREFETCHES: 0 DROPPED PREFETCHES: 0
PSCL2 PREFETCHES SAME FILL-ORIGIN LEVEL: 0 DIFFERENT FILL-ORIGIN LEVEL: 0

LLC TOTAL     ACCESS:    4165683  HIT:    1380730  MISS:    2784953  HIT %:    33.1453  MISS %:    66.8547   MPKI: 13.9248
LLC LOAD      ACCESS:     311829  HIT:     239741  MISS:      72088  HIT %:    76.8822  MISS %:    23.1178   MPKI: 0.36044
LLC RFO       ACCESS:    1190763  HIT:          0  MISS:    1190763  HIT %:          0  MISS %:        100   MPKI: 5.95381
LLC PREFETCH  ACCESS:    1464133  HIT:          0  MISS:    1464133  HIT %:          0  MISS %:        100   MPKI: 7.32066
LLC WRITEBACK ACCESS:    1192280  HIT:    1139755  MISS:      52525  HIT %:    95.5946  MISS %:    4.40542   MPKI: 0.262625
LLC LOAD TRANSLATION ACCESS:       6674  HIT:       1234  MISS:       5440  HIT %:    18.4897  MISS %:    81.5103   MPKI: 0.0272
LLC TRANSLATION FROM L1D PREFETCHER ACCESS:          4  HIT:          0  MISS:          4  HIT %:          0  MISS %:        100   MPKI: 2e-05
LLC PREFETCH  REQUESTED:          0  ISSUED:          0  USEFUL:     911630  USELESS:    4949903
LLC USEFUL LOAD PREFETCHES:     911630 PREFETCH ISSUED TO LOWER LEVEL:    5874495  ACCURACY: 15.5184
LLC TIMELY PREFETCHES:     911630 LATE PREFETCHES: 0 DROPPED PREFETCHES: 0
LLC PREFETCHES SAME FILL-ORIGIN LEVEL: 0 DIFFERENT FILL-ORIGIN LEVEL: 0
LLC AVERAGE MISS LATENCY: 5060.83 cycles
LLC RQ	ACCESS:    6040151	FORWARD:          0	MERGED:          0	TO_CACHE:    6040151
LLC WQ	ACCESS:    4771906	FORWARD:          0	MERGED:          0	TO_CACHE:    4771906
LLC PQ	ACCESS:    5861599	FORWARD:          0	MERGED:          0	TO_CACHE:    5861599

LLC Dense regions hint to LLC: 0

RAW hits: 13097412
Loads Generated: 58645930
Loads sent to L1D: 45548520
Stores Generated: 36649036
Stores sent to L1D: 36649049
Major fault: 0 Minor fault: 48784
Allocated PAGES: 195175

CPU 1 cumulative IPC: 0.659674 instructions: 200000002 cycles: 303179969
ITLB TOTAL     ACCESS:   25271989  HIT:   25271989  MISS:          0  HIT %:        100  MISS %:          0   MPKI: 0
ITLB LOAD TRANSLATION ACCESS:   25271989  HIT:   25271989  MISS:          0  HIT %:        100  MISS %:          0   MPKI: 0
ITLB PREFETCH  REQUESTED:          0  ISSUED:          0  USEFUL:          0  USELESS:          0
ITLB USEFUL LOAD PREFETCHES:          0 PREFETCH ISSUED TO LOWER LEVEL:          0  ACCURACY: -nan
ITLB TIMELY PREFETCHES:          0 LATE PREFETCHES: 0 DROPPED PREFETCHES: 0
ITLB PREFETCHES SAME FILL-ORIGIN LEVEL: 0 DIFFERENT FILL-ORIGIN LEVEL: 0
ITLB AVERAGE MISS LATENCY: -nan cycles
ITLB RQ	ACCESS:   28877346	FORWARD:          0	MERGED:    3605358	TO_CACHE:   25271988

DTLB TOTAL     ACCESS:   43896940  HIT:   43599013  MISS:     297927  HIT %:    99.3213  MISS %:   0.678697   MPKI: 1.48963
DTLB LOAD TRANSLATION ACCESS:   43896940  HIT:   43599013  MISS:     297927  HIT %:    99.3213  MISS %:   0.678697   MPKI: 1.48963
DTLB PREFETCH  REQUESTED:          0  ISSUED:          0  USEFUL:          0  USELESS:          0
DTLB USEFUL LOAD PREFETCHES:          0 PREFETCH ISSUED TO LOWER LEVEL:          0  ACCURACY: -nan
DTLB TIMELY PREFETCHES:          0 LATE PREFETCHES: 0 DROPPED PREFETCHES: 0
DTLB PREFETCHES SAME FILL-ORIGIN LEVEL: 0 DIFFERENT FILL-ORIGIN LEVEL: 0
DTLB AVERAGE MISS LATENCY: 127.1 cycles
DTLB RQ	ACCESS:   67234659	FORWARD:          0	MERGED:   23278351	TO_CACHE:   43956308

STLB TOTAL     ACCESS:    1451267  HIT:    1408658  MISS:      42609  HIT %:     97.064  MISS %:    2.93599   MPKI: 0.213045
STLB LOAD TRANSLATION ACCESS:     297927  HIT:     255319  MISS:      42608  HIT %:    85.6985  MISS %:    14.3015   MPKI: 0.21304
STLB TRANSLATION FROM L1D PREFETCHER ACCESS:    1153340  HIT:    1153339  MISS:          1  HIT %:    99.9999  MISS %: 8.67047e-05   MPKI: 5e-06
STLB PREFETCH  REQUESTED:          0  ISSUED:          0  USEFUL:          0  USELESS:          1
STLB USEFUL LOAD PREFETCHES:          0 PREFETCH ISSUED TO LOWER LEVEL:          0  ACCURACY: -nan
STLB TIMELY PREFETCHES:          0 LATE PREFETCHES: 0 DROPPED PREFETCHES: 0
STLB PREFETCHES SAME FILL-ORIGIN LEVEL: 0 DIFFERENT FILL-ORIGIN LEVEL: 0
STLB AVERAGE MISS LATENCY: 818.769 cycles
STLB RQ	ACCESS:    1762369	FORWARD:          0	MERGED:     311100	TO_CACHE:    1451269

STLB Hit, L1D data hit: 0
STLB Hit, L2C data hit: 0
STLB Hit, LLC data hit: 0
STLB Hit, LLC data miss: 0
STLB STLB hints to L2: 0
L1D TOTAL     ACCESS:   62285079  HIT:   59025492  MISS:    3259587  HIT %:    94.7667  MISS %:    5.23334   MPKI: 16.2979
L1D LOAD      ACCESS:   31170038  HIT:   30433352  MISS:     736686  HIT %:    97.6366  MISS %:    2.36344   MPKI: 3.68343
L1D RFO       ACCESS:   29787944  HIT:   28592139  MISS:    1195805  HIT %:    95.9856  MISS %:    4.01439   MPKI: 5.97902
L1D PREFETCH  ACCESS:    1327097  HIT:          1  MISS:    1327096  HIT %: 7.53524e-05  MISS %:    99.9999   MPKI: 6.63548
L1D PREFETCH  REQUESTED:    2928882  ISSUED:    2928882  USEFUL:    1325051  USELESS:       2049
L1D USEFUL LOAD PREFETCHES:    1325051 PREFETCH ISSUED TO LOWER LEVEL:    1464389  ACCURACY: 90.4849
L1D TIMELY PREFETCHES:    1325051 LATE PREFETCHES: 137287 DROPPED PREFETCHES: 0
L1D PREFETCHES SAME FILL-ORIGIN LEVEL: 1464389 DIFFERENT FILL-ORIGIN LEVEL: 0
L1D AVERAGE MISS LATENCY: 1027.35 cycles
L1D RQ	ACCESS:   45547643	FORWARD:          0	MERGED:   13036178	TO_CACHE:   31266446
L1D WQ	ACCESS:   36649063	FORWARD:    1245019	MERGED:     680850	TO_CACHE:   35968213
L1D PQ	ACCESS:    1464441	FORWARD:          0	MERGED:          0	TO_CACHE:    1464441

L1D UNIQUE REGIONS ACCESSED: 0
L1D REGIONS CONFLICTS: 0
L1D Cross Page Prefetch Requests: 0
L1D Same Page Prefetch Requests: 1842013
L1D ROI Sum of L1D PQ occupancy: 24313257
L1D PREFETCHES PUSHED FROM L2C: 0
L1I TOTAL     ACCESS:   28877346  HIT:   28877346  MISS:          0  HIT %:        100  MISS %:          0   MPKI: 0
L1I LOAD      ACCESS:   28877346  HIT:   28877346  MISS:          0  HIT %:        100  MISS %:          0   MPKI: 0
L1I PREFETCH  REQUESTED:          0  ISSUED:          0  USEFUL:          0  USELESS:          0
L1I USEFUL LOAD PREFETCHES:          0 PREFETCH ISSUED TO LOWER LEVEL:          0  ACCURACY: -nan
L1I TIMELY PREFETCHES:          0 LATE PREFETCHES: 0 DROPPED PREFETCHES: 0
L1I PREFETCHES SAME FILL-ORIGIN LEVEL: 0 DIFFERENT FILL-ORIGIN LEVEL: 0
L1I AVERAGE MISS LATENCY: -nan cycles
L1I RQ	ACCESS:   42876428	FORWARD:          0	MERGED:   13999082	TO_CACHE:   28877346

BTB TOTAL     ACCESS:    1687999  HIT:    1687996  MISS:          3  HIT %:    99.9998  MISS %: 0.000177725   MPKI: 1.5e-05
BTB BRANCH_DIRECT_JUMP	ACCESS:          0  HIT:          0  MISS:          0
BTB BRANCH_INDIRECT	ACCESS:          0  HIT:          0  MISS:          0
BTB BRANCH_CONDITIONAL	ACCESS:    1687999  HIT:    1687996  MISS:          3
BTB BRANCH_DIRECT_CALL	ACCESS:          0  HIT:          0  MISS:          0
BTB BRANCH_INDIRECT_CALL	ACCESS:          0  HIT:          0  MISS:          0
BTB BRANCH_RETURN	ACCESS:          0  HIT:          0  MISS:          0
BTB BRANCH_OTHER ACCESS:          0  HIT:          0  MISS:          0

L2C TOTAL     ACCESS:    4502057  HIT:    1463355  MISS:    3038702  HIT %:    32.5041  MISS %:    67.4959   MPKI: 15.1935
L2C LOAD      ACCESS:     599365  HIT:     288011  MISS:     311354  HIT %:    48.0527  MISS %:    51.9473   MPKI: 1.55677
L2C DATA LOAD MPKI: 1.55677
L2C INSTRUCTION LOAD MPKI: 0
L2C RFO       ACCESS:    1193015  HIT:       2254  MISS:    1190761  HIT %:   0.188933  MISS %:    99.8111   MPKI: 5.9538
[...]
AA111IIIIIIIIIIIIIIIIIIIIAAAA111IIIIIIIIIIIIIIIIIIIIIIIIIIIIIIII
AAA111IIIIIIIIIIIIIIIIIIIAAAA111IIIIIIIIIIIIIIIIIIIIIIIIIIIIIIII
AAAA111IIIIIIIIIIIIIIIIIIAAAA111IIIIIIIIIIIIIIIIIIIIIIIIIIIIIIII
AAAAA111IIIIIIIIIIIIIIIIIAAAA111IIIIIIIIIIIIIIIIIIIIIIIIIIIIIIII
AAAAAA111IIIIIIIIIIIIIIIIAAAA111IIIIIIIIIIIIIIIIIIIIIIIIIIIIIIII
AAAAAAA111IIIIIIIIIIIIIIIAAAA111IIIIIIIIIIIIIIIIIIIIIIIIIIIIIIII
AAAAAAAA111IIIIIIIIIIIIIIAAAA111IIIIIIIIIIIIIIIIIIIIIIIIIIIIIIII
AAAAAAAAA111IIIIIIIIIIIIIAAAA111IIIIIIIIIIIIIIIIIIIIIIIIIIIIIIII
AAAAAAAAAA111IIIIIIIIIIIIAAAA111IIIIIIIIIIIIIIIIIIIIIIIIIIIIIIII
AAAAAAAAAAA111IIIIIIIIIIIAAAA111IIIIIIIIIIIIIIIIIIIIIIIIIIIIIIII
AAAAAAAAAAAA111IIIIIIIIIIAAAA111IIIIIIIIIIIIIIIIIIIIIIIIIIIIIIII
AAAAAAAAAAAAA111IIIIIIIIIAAAA111IIIIIIIIIIIIIIIIIIIIIIIIIIIIIIII
AAAAAAAAAAAAAA111IIIIIIIIAAAA111IIIIIIIIIIIIIIIIIIIIIIIIIIIIIIII
AAAAAAAAAAAAAAA111IIIIIIIAAAA111IIIIIIIIIIIIIIIIIIIIIIIIIIIIIIII
AAAAAAAAAAAAAAAA111IIIIIIAAAA111IIIIIIIIIIIIIIIIIIIIIIIIIIIIIIII
AAAAAAAAAAAAAAAAA111IIIIIAAAA111IIIIIIIIIIIIIIIIIIIIIIIIIIIIIIII
AAAAAAAAAAAAAAAAAA111IIIIAAAA111IIIIIIIIIIIIIIIIIIIIIIIIIIIIIIII
AAAAAAAAAAAAAAAAAAA111IIIAAAA111IIIIIIIIIIIIIIIIIIIIIIIIIIIIIIII
AAAAAAAAAAAAAAAAAAAA111IIAAAA111IIIIIIIIIIIIIIIIIIIIIIIIIIIIIIII
AAAAAAAAAAAAAAAAAAAAA111IAAAA111IIIIIIIIIIIIIIIIIIIIIIIIIIIIIIII
AAAAAAAAAAAAAAAAAAAAAA111AAAA111IIIIIIIIIIIIIIIIIIIIIIIIIIIIIIII
AAAAAAAAAAAAAAAAAAAAAAA11AAAA111IIIIIIIIIIIIIIIIIIIIIIIIIIIIIIII
AAAAAAAAAAAAAAAAAAAAAAAA1AAAA111IIIIIIIIIIIIIIIIIIIIIIIIIIIIIIII
AAAAAAAAAAAAAAAAAAAAAAAAAAAAA111IIIIIIIIIIIIIIIIIIIIIIIIIIIIIIII
AAAAAAAAAAAAAAAAAAAAAAAAAAAAA11A111IIIIIIIIIIIIIIIIIIIIIIIIIIIII
AAAAAAAAAAAAAAAAAAAAAAAAAAAAA11AA111IIIIIIIIIIIIIIIIIIIIIIIIIIII
AAAAAAAAAAAAAAAAAAAAAAAAAAAAA11AAA111IIIIIIIIIIIIIIIIIIIIIIIIIII
AAAAAAAAAAAAAAAAAAAAAAAAAAAAA11AAAA111IIIIIIIIIIIIIIIIIIIIIIIIII
AAAAAAAAAAAAAAAAAAAAAAAAAAAAA11AAAAA111IIIIIIIIIIIIIIIIIIIIIIIII
AAAAAAAAAAAAAAAAAAAAAAAAAAAAAA1AAAAA111IIIIIIIIIIIIIIIIIIIIIIIII
AAAAAAAAAAAAAAAAAAAAAAAAAAAAAA1AAAAAA111IIIIIIIIIIIIIIIIIIIIIIII
AAAAAAAAAAAAAAAAAAAAAAAAAAAAAAAAAAAAA111IIIIIIIIIIIIIIIIIIIIIIII
AAAAAAAAAAAAAAAAAAAAAAAAAAAAAAAAAAAAAA111IIIIIIIIIIIIIIIIIIIIIII
AAAAAAAAAAAAAAAAAAAAAAAAAAAAAAAAAAAAAAA111IIIIIIIIIIIIIIIIIIIIII
AAAAAAAAAAAAAAAAAAAAAAAAAAAAAAAAAAAAAAAA111IIIIIIIIIIIIIIIIIIIII
AAAAAAAAAAAAAAAAAAAAAAAAAAAAAAAAAAAAAAAAA111IIIIIIIIIIIIIIIIIIII
AAAAAAAAAAAAAAAAAAAAAAAAAAAAAAAAAAAAAAAAAA111IIIIIIIIIIIIIIIIIII
AAAAAAAAAAAAAAAAAAAAAAAAAAAAAAAAAAAAAAAAAAA111IIIIIIIIIIIIIIIIII
AAAAAAAAAAAAAAAAAAAAAAAAAAAAAAAAAAAAAAAAAAAA111IIIIIIIIIIIIIIIII
AAAAAAAAAAAAAAAAAAAAAAAAAAAAAAAAAAAAAAAAAAAAA111IIIIIIIIIIIIIIII
AAAAAAAAAAAAAAAAAAAAAAAAAAAAAAAAAAAAAAAAAAAAAA111IIIIIIIIIIIIIII
AAAAAAAAAAAAAAAAAAAAAAAAAAAAAAAAAAAAAAAAAAAAAAA111IIIIIIIIIIIIII
AAAAAAAAAAAAAAAAAAAAAAAAAAAAAAAAAAAAAAAAAAAAAAAA111IIIIIIIIIIIII
AAAAAAAAAAAAAAAAAAAAAAAAAAAAAAAAAAAAAAAAAAAAAAAAA111IIIIIIIIIIII
AAAAAAAAAAAAAAAAAAAAAAAAAAAAAAAAAAAAAAAAAAAAAAAAAA111IIIIIIIIIII
AAAAAAAAAAAAAAAAAAAAAAAAAAAAAAAAAAAAAAAAAAAAAAAAAAA111IIIIIIIIII
AAAAAAAAAAAAAAAAAAAAAAAAAAAAAAAAAAAAAAAAAAAAAAAAAAAA111IIIIIIIII
AAAAAAAAAAAAAAAAAAAAAAAAAAAAAAAAAAAAAAAAAAAAAAAAAAAAA111IIIIIIII
AAAAAAAAAAAAAAAAAAAAAAAAAAAAAAAAAAAAAAAAAAAAAAAAAAAAAA111IIIIIII
AAAAAAAAAAAAAAAAAAAAAAAAAAAAAAAAAAAAAAAAAAAAAAAAAAAAAAA111IIIIII
AAAAAAAAAAAAAAAAAAAAAAAAAAAAAAAAAAAAAAAAAAAAAAAAAAAAAAAA111IIIII
AAAAAAAAAAAAAAAAAAAAAAAAAAAAAAAAAAAAAAAAAAAAAAAAAAAAAAAAA111IIII
AAAAAAAAAAAAAAAAAAAAAAAAAAAAAAAAAAAAAAAAAAAAAAAAAAAAAAAAAA111III
AAAAAAAAAAAAAAAAAAAAAAAAAAAAAAAAAAAAAAAAAAAAAAAAAAAAAAAAAAA111II
AAAAAAAAAAAAAAAAAAAAAAAAAAAAAAAAAAAAAAAAAAAAAAAAAAAAAAAAAAAA111I
AAAAAAAAAAAAAAAAAAAAAAAAAAAAAAAAAAAAAAAAAAAAAAAAAAAAAAAAAAAAA111
AAAAAAAAAAAAAAAAAAAAAAAAAAAAAAAAAAAAAAAAAAAAAAAAAAAAAAAAAAAAAA11
AAAAAAAAAAAAAAAAAAAAAAAAAAAAAAAAAAAAAAAAAAAAAAAAAAAAAAAAAAAAAAA1
AAAAAAAAAAAAAAAAAAAAAAAAAAAAAAAAAAAAAAAAAAAAAAAAAAAAAAAAAAAAAAAA
[MLOP] Prefetch Degree Mean: 2.98667
[MLOP] Prefetch Degree SD: 0.17075
[MLOP] Max Score Left Mean (%): 92.4448
[MLOP] Max Score Left SD (%): 4.8689
[MLOP] Max Score Right Mean (%): 99.1355
[MLOP] Max Score Right SD (%): 1.89281
=== CPU 1 L1D Prefetcher Statistics ===
[MLOP] History of tracked zone:
IIIIIIIIIIIIIIIIIIIIIIIIIIIIIIIIIIIIIIIIIIIIIIIIIIIIIIIIIIIIIIII
IIIIIIIIIIIIIIIIIIIIIIIIIA111IIIIIIIIIIIIIIIIIIIIIIIIIIIIIIIIIII
IIIIIIIIIIIIIIIIIIIIIIIIIAA111IIIIIIIIIIIIIIIIIIIIIIIIIIIIIIIIII
IIIIIIIIIIIIIIIIIIIIIIIIIAAA111IIIIIIIIIIIIIIIIIIIIIIIIIIIIIIIII
IIIIIIIIIIIIIIIIIIIIIIIIIAAAA111IIIIIIIIIIIIIIIIIIIIIIIIIIIIIIII
A111IIIIIIIIIIIIIIIIIIIIIAAAA111IIIIIIIIIIIIIIIIIIIIIIIIIIIIIIII
AA111IIIIIIIIIIIIIIIIIIIIAAAA111IIIIIIIIIIIIIIIIIIIIIIIIIIIIIIII
AAA111IIIIIIIIIIIIIIIIIIIAAAA111IIIIIIIIIIIIIIIIIIIIIIIIIIIIIIII
AAAA111IIIIIIIIIIIIIIIIIIAAAA111IIIIIIIIIIIIIIIIIIIIIIIIIIIIIIII
AAAAA111IIIIIIIIIIIIIIIIIAAAA111IIIIIIIIIIIIIIIIIIIIIIIIIIIIIIII
AAAAAA111IIIIIIIIIIIIIIIIAAAA111IIIIIIIIIIIIIIIIIIIIIIIIIIIIIIII
AAAAAAA111IIIIIIIIIIIIIIIAAAA111IIIIIIIIIIIIIIIIIIIIIIIIIIIIIIII
AAAAAAAA111IIIIIIIIIIIIIIAAAA111IIIIIIIIIIIIIIIIIIIIIIIIIIIIIIII
AAAAAAAAA111IIIIIIIIIIIIIAAAA111IIIIIIIIIIIIIIIIIIIIIIIIIIIIIIII
AAAAAAAAAA111IIIIIIIIIIIIAAAA111IIIIIIIIIIIIIIIIIIIIIIIIIIIIIIII
AAAAAAAAAAA111IIIIIIIIIIIAAAA111IIIIIIIIIIIIIIIIIIIIIIIIIIIIIIII
AAAAAAAAAAAA111IIIIIIIIIIAAAA111IIIIIIIIIIIIIIIIIIIIIIIIIIIIIIII
AAAAAAAAAAAAA111IIIIIIIIIAAAA111IIIIIIIIIIIIIIIIIIIIIIIIIIIIIIII
AAAAAAAAAAAAAA111IIIIIIIIAAAA111IIIIIIIIIIIIIIIIIIIIIIIIIIIIIIII
AAAAAAAAAAAAAAA111IIIIIIIAAAA111IIIIIIIIIIIIIIIIIIIIIIIIIIIIIIII
AAAAAAAAAAAAAAAA111IIIIIIAAAA111IIIIIIIIIIIIIIIIIIIIIIIIIIIIIIII
AAAAAAAAAAAAAAAAA111IIIIIAAAA111IIIIIIIIIIIIIIIIIIIIIIIIIIIIIIII
AAAAAAAAAAAAAAAAAA111IIIIAAAA111IIIIIIIIIIIIIIIIIIIIIIIIIIIIIIII
AAAAAAAAAAAAAAAAAAA111IIIAAAA111IIIIIIIIIIIIIIIIIIIIIIIIIIIIIIII
AAAAAAAAAAAAAAAAAAAA111IIAAAA111IIIIIIIIIIIIIIIIIIIIIIIIIIIIIIII
AAAAAAAAAAAAAAAAAAAAA111IAAAA111IIIIIIIIIIIIIIIIIIIIIIIIIIIIIIII
AAAAAAAAAAAAAAAAAAAAAA111AAAA111IIIIIIIIIIIIIIIIIIIIIIIIIIIIIIII
AAAAAAAAAAAAAAAAAAAAAAA11AAAA111IIIIIIIIIIIIIIIIIIIIIIIIIIIIIIII
AAAAAAAAAAAAAAAAAAAAAAAA1AAAA111IIIIIIIIIIIIIIIIIIIIIIIIIIIIIIII
AAAAAAAAAAAAAAAAAAAAAAAAAAAAA111IIIIIIIIIIIIIIIIIIIIIIIIIIIIIIII
AAAAAAAAAAAAAAAAAAAAAAAAAAAAA11A111IIIIIIIIIIIIIIIIIIIIIIIIIIIII
AAAAAAAAAAAAAAAAAAAAAAAAAAAAA11AA111IIIIIIIIIIIIIIIIIIIIIIIIIIII
AAAAAAAAAAAAAAAAAAAAAAAAAAAAA11AAA111IIIIIIIIIIIIIIIIIIIIIIIIIII
AAAAAAAAAAAAAAAAAAAAAAAAAAAAA11AAAA111IIIIIIIIIIIIIIIIIIIIIIIIII
AAAAAAAAAAAAAAAAAAAAAAAAAAAAA11AAAAA111IIIIIIIIIIIIIIIIIIIIIIIII
AAAAAAAAAAAAAAAAAAAAAAAAAAAAAA1AAAAA111IIIIIIIIIIIIIIIIIIIIIIIII
AAAAAAAAAAAAAAAAAAAAAAAAAAAAAA1AAAAAA111IIIIIIIIIIIIIIIIIIIIIIII
AAAAAAAAAAAAAAAAAAAAAAAAAAAAAAAAAAAAA111IIIIIIIIIIIIIIIIIIIIIIII
AAAAAAAAAAAAAAAAAAAAAAAAAAAAAAAAAAAAAA111IIIIIIIIIIIIIIIIIIIIIII
AAAAAAAAAAAAAAAAAAAAAAAAAAAAAAAAAAAAAAA111IIIIIIIIIIIIIIIIIIIIII
AAAAAAAAAAAAAAAAAAAAAAAAAAAAAAAAAAAAAAAA111IIIIIIIIIIIIIIIIIIIII
AAAAAAAAAAAAAAAAAAAAAAAAAAAAAAAAAAAAAAAAA111IIIIIIIIIIIIIIIIIIII
AAAAAAAAAAAAAAAAAAAAAAAAAAAAAAAAAAAAAAAAAA111IIIIIIIIIIIIIIIIIII
AAAAAAAAAAAAAAAAAAAAAAAAAAAAAAAAAAAAAAAAAAA111IIIIIIIIIIIIIIIIII
AAAAAAAAAAAAAAAAAAAAAAAAAAAAAAAAAAAAAAAAAAAA111IIIIIIIIIIIIIIIII
AAAAAAAAAAAAAAAAAAAAAAAAAAAAAAAAAAAAAAAAAAAAA111IIIIIIIIIIIIIIII
AAAAAAAAAAAAAAAAAAAAAAAAAAAAAAAAAAAAAAAAAAAAAA111IIIIIIIIIIIIIII
AAAAAAAAAAAAAAAAAAAAAAAAAAAAAAAAAAAAAAAAAAAAAAA111IIIIIIIIIIIIII
AAAAAAAAAAAAAAAAAAAAAAAAAAAAAAAAAAAAAAAAAAAAAAAA111IIIIIIIIIIIII
AAAAAAAAAAAAAAAAAAAAAAAAAAAAAAAAAAAAAAAAAAAAAAAAA111IIIIIIIIIIII
AAAAAAAAAAAAAAAAAAAAAAAAAAAAAAAAAAAAAAAAAAAAAAAAAA111IIIIIIIIIII
AAAAAAAAAAAAAAAAAAAAAAAAAAAAAAAAAAAAAAAAAAAAAAAAAAA111IIIIIIIIII
AAAAAAAAAAAAAAAAAAAAAAAAAAAAAAAAAAAAAAAAAAAAAAAAAAAA111IIIIIIIII
AAAAAAAAAAAAAAAAAAAAAAAAAAAAAAAAAAAAAAAAAAAAAAAAAAAAA111IIIIIIII
AAAAAAAAAAAAAAAAAAAAAAAAAAAAAAAAAAAAAAAAAAAAAAAAAAAAAA111IIIIIII
AAAAAAAAAAAAAAAAAAAAAAAAAAAAAAAAAAAAAAAAAAAAAAAAAAAAAAA111IIIIII
AAAAAAAAAAAAAAAAAAAAAAAAAAAAAAAAAAAAAAAAAAAAAAAAAAAAAAAA111IIIII
AAAAAAAAAAAAAAAAAAAAAAAAAAAAAAAAAAAAAAAAAAAAAAAAAAAAAAAAA111IIII
AAAAAAAAAAAAAAAAAAAAAAAAAAAAAAAAAAAAAAAAAAAAAAAAAAAAAAAAAA111III
AAAAAAAAAAAAAAAAAAAAAAAAAAAAAAAAAAAAAAAAAAAAAAAAAAAAAAAAAAA111II
AAAAAAAAAAAAAAAAAAAAAAAAAAAAAAAAAAAAAAAAAAAAAAAAAAAAAAAAAAAA111I
AAAAAAAAAAAAAAAAAAAAAAAAAAAAAAAAAAAAAAAAAAAAAAAAAAAAAAAAAAAAA111
AAAAAAAAAAAAAAAAAAAAAAAAAAAAAAAAAAAAAAAAAAAAAAAAAAAAAAAAAAAAAA11
AAAAAAAAAAAAAAAAAAAAAAAAAAAAAAAAAAAAAAAAAAAAAAAAAAAAAAAAAAAAAAA1
AAAAAAAAAAAAAAAAAAAAAAAAAAAAAAAAAAAAAAAAAAAAAAAAAAAAAAAAAAAAAAAA
[MLOP] Prefetch Degree Mean: 2.98933
[MLOP] Prefetch Degree SD: 0.162951
[MLOP] Max Score Left Mean (%): 92.4864
[MLOP] Max Score Left SD (%): 4.86573
[MLOP] Max Score Right Mean (%): 99.1291
[MLOP] Max Score Right SD (%): 1.89224
=== CPU 2 L1D Prefetcher Statistics ===
[MLOP] History of tracked zone:
IIIIIIIIIIIIIIIIIIIIIIIIIIIIIIIIIIIIIIIIIIIIIIIIIIIIIIIIIIIIIIII
IIIIIIIIIIIIIIIIIIIIIIIIIA111IIIIIIIIIIIIIIIIIIIIIIIIIIIIIIIIIII
IIIIIIIIIIIIIIIIIIIIIIIIIAA111IIIIIIIIIIIIIIIIIIIIIIIIIIIIIIIIII
IIIIIIIIIIIIIIIIIIIIIIIIIAAA111IIIIIIIIIIIIIIIIIIIIIIIIIIIIIIIII
IIIIIIIIIIIIIIIIIIIIIIIIIAAAA111IIIIIIIIIIIIIIIIIIIIIIIIIIIIIIII
A111IIIIIIIIIIIIIIIIIIIIIAAAA111IIIIIIIIIIIIIIIIIIIIIIIIIIIIIIII
AA111IIIIIIIIIIIIIIIIIIIIAAAA111IIIIIIIIIIIIIIIIIIIIIIIIIIIIIIII
AAA111IIIIIIIIIIIIIIIIIIIAAAA111IIIIIIIIIIIIIIIIIIIIIIIIIIIIIIII
AAAA111IIIIIIIIIIIIIIIIIIAAAA111IIIIIIIIIIIIIIIIIIIIIIIIIIIIIIII
AAAAA111IIIIIIIIIIIIIIIIIAAAA111IIIIIIIIIIIIIIIIIIIIIIIIIIIIIIII
AAAAAA111IIIIIIIIIIIIIIIIAAAA111IIIIIIIIIIIIIIIIIIIIIIIIIIIIIIII
AAAAAAA111IIIIIIIIIIIIIIIAAAA111IIIIIIIIIIIIIIIIIIIIIIIIIIIIIIII
AAAAAAAA111IIIIIIIIIIIIIIAAAA111IIIIIIIIIIIIIIIIIIIIIIIIIIIIIIII
AAAAAAAAA111IIIIIIIIIIIIIAAAA111IIIIIIIIIIIIIIIIIIIIIIIIIIIIIIII
AAAAAAAAAA111IIIIIIIIIIIIAAAA111IIIIIIIIIIIIIIIIIIIIIIIIIIIIIIII
AAAAAAAAAAA111IIIIIIIIIIIAAAA111IIIIIIIIIIIIIIIIIIIIIIIIIIIIIIII
AAAAAAAAAAAA111IIIIIIIIIIAAAA111IIIIIIIIIIIIIIIIIIIIIIIIIIIIIIII
AAAAAAAAAAAAA111IIIIIIIIIAAAA111IIIIIIIIIIIIIIIIIIIIIIIIIIIIIIII
AAAAAAAAAAAAAA111IIIIIIIIAAAA111IIIIIIIIIIIIIIIIIIIIIIIIIIIIIIII
AAAAAAAAAAAAAAA111IIIIIIIAAAA111IIIIIIIIIIIIIIIIIIIIIIIIIIIIIIII
AAAAAAAAAAAAAAAA111IIIIIIAAAA111IIIIIIIIIIIIIIIIIIIIIIIIIIIIIIII
AAAAAAAAAAAAAAAAA111IIIIIAAAA111IIIIIIIIIIIIIIIIIIIIIIIIIIIIIIII
AAAAAAAAAAAAAAAAAA111IIIIAAAA111IIIIIIIIIIIIIIIIIIIIIIIIIIIIIIII
AAAAAAAAAAAAAAAAAAA111IIIAAAA111IIIIIIIIIIIIIIIIIIIIIIIIIIIIIIII
AAAAAAAAAAAAAAAAAAAA111IIAAAA111IIIIIIIIIIIIIIIIIIIIIIIIIIIIIIII
AAAAAAAAAAAAAAAAAAAAA111IAAAA111IIIIIIIIIIIIIIIIIIIIIIIIIIIIIIII
AAAAAAAAAAAAAAAAAAAAAA111AAAA111IIIIIIIIIIIIIIIIIIIIIIIIIIIIIIII
AAAAAAAAAAAAAAAAAAAAAAA11AAAA111IIIIIIIIIIIIIIIIIIIIIIIIIIIIIIII
AAAAAAAAAAAAAAAAAAAAAAAA1AAAA111IIIIIIIIIIIIIIIIIIIIIIIIIIIIIIII
AAAAAAAAAAAAAAAAAAAAAAAAAAAAA111IIIIIIIIIIIIIIIIIIIIIIIIIIIIIIII
AAAAAAAAAAAAAAAAAAAAAAAAAAAAA11A111IIIIIIIIIIIIIIIIIIIIIIIIIIIII
AAAAAAAAAAAAAAAAAAAAAAAAAAAAA11AA111IIIIIIIIIIIIIIIIIIIIIIIIIIII
AAAAAAAAAAAAAAAAAAAAAAAAAAAAA11AAA111IIIIIIIIIIIIIIIIIIIIIIIIIII
AAAAAAAAAAAAAAAAAAAAAAAAAAAAA11AAAA111IIIIIIIIIIIIIIIIIIIIIIIIII
AAAAAAAAAAAAAAAAAAAAAAAAAAAAA11AAAAA111IIIIIIIIIIIIIIIIIIIIIIIII
AAAAAAAAAAAAAAAAAAAAAAAAAAAAAA1AAAAA111IIIIIIIIIIIIIIIIIIIIIIIII
AAAAAAAAAAAAAAAAAAAAAAAAAAAAAA1AAAAAA111IIIIIIIIIIIIIIIIIIIIIIII
AAAAAAAAAAAAAAAAAAAAAAAAAAAAAAAAAAAAA111IIIIIIIIIIIIIIIIIIIIIIII
AAAAAAAAAAAAAAAAAAAAAAAAAAAAAAAAAAAAAA111IIIIIIIIIIIIIIIIIIIIIII
AAAAAAAAAAAAAAAAAAAAAAAAAAAAAAAAAAAAAAA111IIIIIIIIIIIIIIIIIIIIII
AAAAAAAAAAAAAAAAAAAAAAAAAAAAAAAAAAAAAAAA111IIIIIIIIIIIIIIIIIIIII
AAAAAAAAAAAAAAAAAAAAAAAAAAAAAAAAAAAAAAAAA111IIIIIIIIIIIIIIIIIIII
AAAAAAAAAAAAAAAAAAAAAAAAAAAAAAAAAAAAAAAAAA111IIIIIIIIIIIIIIIIIII
AAAAAAAAAAAAAAAAAAAAAAAAAAAAAAAAAAAAAAAAAAA111IIIIIIIIIIIIIIIIII
AAAAAAAAAAAAAAAAAAAAAAAAAAAAAAAAAAAAAAAAAAAA111IIIIIIIIIIIIIIIII
AAAAAAAAAAAAAAAAAAAAAAAAAAAAAAAAAAAAAAAAAAAAA111IIIIIIIIIIIIIIII
AAAAAAAAAAAAAAAAAAAAAAAAAAAAAAAAAAAAAAAAAAAAAA111IIIIIIIIIIIIIII
AAAAAAAAAAAAAAAAAAAAAAAAAAAAAAAAAAAAAAAAAAAAAAA111IIIIIIIIIIIIII
AAAAAAAAAAAAAAAAAAAAAAAAAAAAAAAAAAAAAAAAAAAAAAAA111IIIIIIIIIIIII
AAAAAAAAAAAAAAAAAAAAAAAAAAAAAAAAAAAAAAAAAAAAAAAAA111IIIIIIIIIIII
AAAAAAAAAAAAAAAAAAAAAAAAAAAAAAAAAAAAAAAAAAAAAAAAAA111IIIIIIIIIII
AAAAAAAAAAAAAAAAAAAAAAAAAAAAAAAAAAAAAAAAAAAAAAAAAAA111IIIIIIIIII
AAAAAAAAAAAAAAAAAAAAAAAAAAAAAAAAAAAAAAAAAAAAAAAAAAAA111IIIIIIIII
AAAAAAAAAAAAAAAAAAAAAAAAAAAAAAAAAAAAAAAAAAAAAAAAAAAAA111IIIIIIII
AAAAAAAAAAAAAAAAAAAAAAAAAAAAAAAAAAAAAAAAAAAAAAAAAAAAAA111IIIIIII
AAAAAAAAAAAAAAAAAAAAAAAAAAAAAAAAAAAAAAAAAAAAAAAAAAAAAAA111IIIIII
AAAAAAAAAAAAAAAAAAAAAAAAAAAAAAAAAAAAAAAAAAAAAAAAAAAAAAAA111IIIII
AAAAAAAAAAAAAAAAAAAAAAAAAAAAAAAAAAAAAAAAAAAAAAAAAAAAAAAAA111IIII
AAAAAAAAAAAAAAAAAAAAAAAAAAAAAAAAAAAAAAAAAAAAAAAAAAAAAAAAAA111III
AAAAAAAAAAAAAAAAAAAAAAAAAAAAAAAAAAAAAAAAAAAAAAAAAAAAAAAAAAA111II
AAAAAAAAAAAAAAAAAAAAAAAAAAAAAAAAAAAAAAAAAAAAAAAAAAAAAAAAAAAA111I
AAAAAAAAAAAAAAAAAAAAAAAAAAAAAAAAAAAAAAAAAAAAAAAAAAAAAAAAAAAAA111
AAAAAAAAAAAAAAAAAAAAAAAAAAAAAAAAAAAAAAAAAAAAAAAAAAAAAAAAAAAAAA11
AAAAAAAAAAAAAAAAAAAAAAAAAAAAAAAAAAAAAAAAAAAAAAAAAAAAAAAAAAAAAAA1
AAAAAAAAAAAAAAAAAAAAAAAAAAAAAAAAAAAAAAAAAAAAAAAAAAAAAAAAAAAAAAAA
[MLOP] Prefetch Degree Mean: 2.99467
[MLOP] Prefetch Degree SD: 0.193145
[MLOP] Max Score Left Mean (%): 92.5317
[MLOP] Max Score Left SD (%): 4.86865
[MLOP] Max Score Right Mean (%): 99.1328
[MLOP] Max Score Right SD (%): 1.90644
=== CPU 3 L1D Prefetcher Statistics ===
[MLOP] History of tracked zone:
IIIIIIIIIIIIIIIIIIIIIIIIIIIIIIIIIIIIIIIIIIIIIIIIIIIIIIIIIIIIIIII
IIIIIIIIIIIIIIIIIIIIIIIIIA111IIIIIIIIIIIIIIIIIIIIIIIIIIIIIIIIIII
IIIIIIIIIIIIIIIIIIIIIIIIIAA111IIIIIIIIIIIIIIIIIIIIIIIIIIIIIIIIII
IIIIIIIIIIIIIIIIIIIIIIIIIAAA111IIIIIIIIIIIIIIIIIIIIIIIIIIIIIIIII
IIIIIIIIIIIIIIIIIIIIIIIIIAAAA111IIIIIIIIIIIIIIIIIIIIIIIIIIIIIIII
A111IIIIIIIIIIIIIIIIIIIIIAAAA111IIIIIIIIIIIIIIIIIIIIIIIIIIIIIIII
AA111IIIIIIIIIIIIIIIIIIIIAAAA111IIIIIIIIIIIIIIIIIIIIIIIIIIIIIIII
AAA111IIIIIIIIIIIIIIIIIIIAAAA111IIIIIIIIIIIIIIIIIIIIIIIIIIIIIIII
AAAA111IIIIIIIIIIIIIIIIIIAAAA111IIIIIIIIIIIIIIIIIIIIIIIIIIIIIIII
AAAAA111IIIIIIIIIIIIIIIIIAAAA111IIIIIIIIIIIIIIIIIIIIIIIIIIIIIIII
AAAAAA111IIIIIIIIIIIIIIIIAAAA111IIIIIIIIIIIIIIIIIIIIIIIIIIIIIIII
AAAAAAA111IIIIIIIIIIIIIIIAAAA111IIIIIIIIIIIIIIIIIIIIIIIIIIIIIIII
AAAAAAAA111IIIIIIIIIIIIIIAAAA111IIIIIIIIIIIIIIIIIIIIIIIIIIIIIIII
AAAAAAAAA111IIIIIIIIIIIIIAAAA111IIIIIIIIIIIIIIIIIIIIIIIIIIIIIIII
AAAAAAAAAA111IIIIIIIIIIIIAAAA111IIIIIIIIIIIIIIIIIIIIIIIIIIIIIIII
AAAAAAAAAAA111IIIIIIIIIIIAAAA111IIIIIIIIIIIIIIIIIIIIIIIIIIIIIIII
AAAAAAAAAAAA111IIIIIIIIIIAAAA111IIIIIIIIIIIIIIIIIIIIIIIIIIIIIIII
AAAAAAAAAAAAA111IIIIIIIIIAAAA111IIIIIIIIIIIIIIIIIIIIIIIIIIIIIIII
AAAAAAAAAAAAAA111IIIIIIIIAAAA111IIIIIIIIIIIIIIIIIIIIIIIIIIIIIIII
AAAAAAAAAAAAAAA111IIIIIIIAAAA111IIIIIIIIIIIIIIIIIIIIIIIIIIIIIIII
AAAAAAAAAAAAAAAA111IIIIIIAAAA111IIIIIIIIIIIIIIIIIIIIIIIIIIIIIIII
AAAAAAAAAAAAAAAAA111IIIIIAAAA111IIIIIIIIIIIIIIIIIIIIIIIIIIIIIIII
AAAAAAAAAAAAAAAAAA111IIIIAAAA111IIIIIIIIIIIIIIIIIIIIIIIIIIIIIIII
AAAAAAAAAAAAAAAAAAA111IIIAAAA111IIIIIIIIIIIIIIIIIIIIIIIIIIIIIIII
AAAAAAAAAAAAAAAAAAAA111IIAAAA111IIIIIIIIIIIIIIIIIIIIIIIIIIIIIIII
AAAAAAAAAAAAAAAAAAAAA111IAAAA111IIIIIIIIIIIIIIIIIIIIIIIIIIIIIIII
AAAAAAAAAAAAAAAAAAAAAA111AAAA111IIIIIIIIIIIIIIIIIIIIIIIIIIIIIIII
AAAAAAAAAAAAAAAAAAAAAAA11AAAA111IIIIIIIIIIIIIIIIIIIIIIIIIIIIIIII
AAAAAAAAAAAAAAAAAAAAAAAA1AAAA111IIIIIIIIIIIIIIIIIIIIIIIIIIIIIIII
AAAAAAAAAAAAAAAAAAAAAAAAAAAAA111IIIIIIIIIIIIIIIIIIIIIIIIIIIIIIII
AAAAAAAAAAAAAAAAAAAAAAAAAAAAA11A111IIIIIIIIIIIIIIIIIIIIIIIIIIIII
AAAAAAAAAAAAAAAAAAAAAAAAAAAAA11AA111IIIIIIIIIIIIIIIIIIIIIIIIIIII
AAAAAAAAAAAAAAAAAAAAAAAAAAAAA11AAA111IIIIIIIIIIIIIIIIIIIIIIIIIII
AAAAAAAAAAAAAAAAAAAAAAAAAAAAA11AAAA111IIIIIIIIIIIIIIIIIIIIIIIIII
AAAAAAAAAAAAAAAAAAAAAAAAAAAAA11AAAAA111IIIIIIIIIIIIIIIIIIIIIIIII
AAAAAAAAAAAAAAAAAAAAAAAAAAAAAA1AAAAA111IIIIIIIIIIIIIIIIIIIIIIIII
AAAAAAAAAAAAAAAAAAAAAAAAAAAAAA1AAAAAA111IIIIIIIIIIIIIIIIIIIIIIII
AAAAAAAAAAAAAAAAAAAAAAAAAAAAAAAAAAAAA111IIIIIIIIIIIIIIIIIIIIIIII
AAAAAAAAAAAAAAAAAAAAAAAAAAAAAAAAAAAAAA111IIIIIIIIIIIIIIIIIIIIIII
AAAAAAAAAAAAAAAAAAAAAAAAAAAAAAAAAAAAAAA111IIIIIIIIIIIIIIIIIIIIII
AAAAAAAAAAAAAAAAAAAAAAAAAAAAAAAAAAAAAAAA111IIIIIIIIIIIIIIIIIIIII
AAAAAAAAAAAAAAAAAAAAAAAAAAAAAAAAAAAAAAAAA111IIIIIIIIIIIIIIIIIIII
AAAAAAAAAAAAAAAAAAAAAAAAAAAAAAAAAAAAAAAAAA111IIIIIIIIIIIIIIIIIII
AAAAAAAAAAAAAAAAAAAAAAAAAAAAAAAAAAAAAAAAAAA111IIIIIIIIIIIIIIIIII
AAAAAAAAAAAAAAAAAAAAAAAAAAAAAAAAAAAAAAAAAAAA111IIIIIIIIIIIIIIIII
AAAAAAAAAAAAAAAAAAAAAAAAAAAAAAAAAAAAAAAAAAAAA111IIIIIIIIIIIIIIII
AAAAAAAAAAAAAAAAAAAAAAAAAAAAAAAAAAAAAAAAAAAAAA111IIIIIIIIIIIIIII
AAAAAAAAAAAAAAAAAAAAAAAAAAAAAAAAAAAAAAAAAAAAAAA111IIIIIIIIIIIIII
AAAAAAAAAAAAAAAAAAAAAAAAAAAAAAAAAAAAAAAAAAAAAAAA111IIIIIIIIIIIII
AAAAAAAAAAAAAAAAAAAAAAAAAAAAAAAAAAAAAAAAAAAAAAAAA111IIIIIIIIIIII
AAAAAAAAAAAAAAAAAAAAAAAAAAAAAAAAAAAAAAAAAAAAAAAAAA111IIIIIIIIIII
AAAAAAAAAAAAAAAAAAAAAAAAAAAAAAAAAAAAAAAAAAAAAAAAAAA111IIIIIIIIII
AAAAAAAAAAAAAAAAAAAAAAAAAAAAAAAAAAAAAAAAAAAAAAAAAAAA111IIIIIIIII
AAAAAAAAAAAAAAAAAAAAAAAAAAAAAAAAAAAAAAAAAAAAAAAAAAAAA111IIIIIIII
AAAAAAAAAAAAAAAAAAAAAAAAAAAAAAAAAAAAAAAAAAAAAAAAAAAAAA111IIIIIII
AAAAAAAAAAAAAAAAAAAAAAAAAAAAAAAAAAAAAAAAAAAAAAAAAAAAAAA111IIIIII
AAAAAAAAAAAAAAAAAAAAAAAAAAAAAAAAAAAAAAAAAAAAAAAAAAAAAAAA111IIIII
AAAAAAAAAAAAAAAAAAAAAAAAAAAAAAAAAAAAAAAAAAAAAAAAAAAAAAAAA111IIII
AAAAAAAAAAAAAAAAAAAAAAAAAAAAAAAAAAAAAAAAAAAAAAAAAAAAAAAAAA111III
AAAAAAAAAAAAAAAAAAAAAAAAAAAAAAAAAAAAAAAAAAAAAAAAAAAAAAAAAAA111II
AAAAAAAAAAAAAAAAAAAAAAAAAAAAAAAAAAAAAAAAAAAAAAAAAAAAAAAAAAAA111I
AAAAAAAAAAAAAAAAAAAAAAAAAAAAAAAAAAAAAAAAAAAAAAAAAAAAAAAAAAAAA111
AAAAAAAAAAAAAAAAAAAAAAAAAAAAAAAAAAAAAAAAAAAAAAAAAAAAAAAAAAAAAA11
AAAAAAAAAAAAAAAAAAAAAAAAAAAAAAAAAAAAAAAAAAAAAAAAAAAAAAAAAAAAAAA1
AAAAAAAAAAAAAAAAAAAAAAAAAAAAAAAAAAAAAAAAAAAAAAAAAAAAAAAAAAAAAAAA
[MLOP] Prefetch Degree Mean: 2.992
[MLOP] Prefetch Degree SD: 0.171083
[MLOP] Max Score Left Mean (%): 92.4336
[MLOP] Max Score Left SD (%): 4.87462
[MLOP] Max Score Right Mean (%): 99.1403
[MLOP] Max Score Right SD (%): 1.94463

DRAM Statistics
 CHANNEL 0
 RQ ROW_BUFFER_HIT:    5060647  ROW_BUFFER_MISS:    5876739
 DBUS_CONGESTED:          0
 WQ ROW_BUFFER_HIT:     411420  ROW_BUFFER_MISS:    4356569  FULL:          0

 AVG_CONGESTED_CYCLE: -
 All warmup complete: 5
Channel 0 Bank busy for read cycles: 0
Channel 0 Bank busy for write cycles: 0
Channel 0
Rank 0
0banks busy for read cycles: 53
0banks busy for write cycles: 0
1banks busy for read cycles: 485933
1banks busy for write cycles: 484790
2banks busy for read cycles: 500697
2banks busy for write cycles: 484790
3banks busy for read cycles: 591372
3banks busy for write cycles: 484790
4banks busy for read cycles: 1112856
4banks busy for write cycles: 484850
5banks busy for read cycles: 3502154
5banks busy for write cycles: 492835
6banks busy for read cycles: 12658893
6banks busy for write cycles: 963202
7banks busy for read cycles: 44255484
7banks busy for write cycles: 14004003
8banks busy for read cycles: 112216960
8banks busy for write cycles: 110456308

CPU 0 Branch Prediction Accuracy: 99.9697% MPKI: 0.00255884 Average ROB Occupancy at Mispredict: 313.881
Branch types
NOT_BRANCH: 198399898 99.156%
BRANCH_DIRECT_JUMP: 0 0%
BRANCH_INDIRECT: 0 0%
BRANCH_CONDITIONAL: 1688754 0.844003%
BRANCH_DIRECT_CALL: 0 0%
BRANCH_INDIRECT_CALL: 0 0%
BRANCH_RETURN: 0 0%
BRANCH_OTHER: 0 0%


CPU 1 Branch Prediction Accuracy: 99.9697% MPKI: 0.00255998 Average ROB Occupancy at Mispredict: 314.074
Branch types
NOT_BRANCH: 198311960 99.156%
BRANCH_DIRECT_JUMP: 0 0%
BRANCH_INDIRECT: 0 0%
BRANCH_CONDITIONAL: 1688007 0.844003%
BRANCH_DIRECT_CALL: 0 0%
BRANCH_INDIRECT_CALL: 0 0%
BRANCH_RETURN: 0 0%
BRANCH_OTHER: 0 0%


CPU 2 Branch Prediction Accuracy: 99.9697% MPKI: 0.0025611 Average ROB Occupancy at Mispredict: 313.723
Branch types
NOT_BRANCH: 198613361 99.156%
BRANCH_DIRECT_JUMP: 0 0%
BRANCH_INDIRECT: 0 0%
BRANCH_CONDITIONAL: 1690570 0.844002%
BRANCH_DIRECT_CALL: 0 0%
BRANCH_INDIRECT_CALL: 0 0%
BRANCH_RETURN: 0 0%
BRANCH_OTHER: 0 0%


CPU 3 Branch Prediction Accuracy: 99.9697% MPKI: 0.00255797 Average ROB Occupancy at Mispredict: 314.025
Branch types
NOT_BRANCH: 198469448 99.156%
BRANCH_DIRECT_JUMP: 0 0%
BRANCH_INDIRECT: 0 0%
BRANCH_CONDITIONAL: 1689346 0.844003%
BRANCH_DIRECT_CALL: 0 0%
BRANCH_INDIRECT_CALL: 0 0%
BRANCH_RETURN: 0 0%
BRANCH_OTHER: 0 0%

DRAM PAGES: 1048576
Allocated PAGES: 195175
