
*** ChampSim Multicore Out-of-Order Simulator ***

Warmup Instructions: 50000000
Simulation Instructions: 200000000
Number of CPUs: 4
LLC sets: 8192
LLC ways: 16
Off-chip DRAM Size: 4096 MB Channels: 1 Width: 64-bit Data Rate: 6400 MT/s
CPU 0 runs ./traces/ligra/ligra_BFSCC.com-lj.ungraph.gcc_6.3.0_O3.drop_3500M.length_250M.champsimtrace.xz
.xz
CPU 1 runs ./traces/gap/sssp-5.trace.gz
.gz
CPU 2 runs ./traces/ligra/ligra_PageRank.com-lj.ungraph.gcc_6.3.0_O3.drop_51000M.length_250M.champsimtrace.xz
.xz
CPU 3 runs ./traces/ligra/ligra_Components-Shortcut.com-lj.ungraph.gcc_6.3.0_O3.drop_21000M.length_250M.champsimtrace.xz
.xz
BTB has LRU replacement policy
ITLB has LRU replacement policy
DTLB has LRU replacement policy
STLB has LRU replacement policy
L1I has LRU replacement policy
L1D has LRU replacement policy
Initialize SRRIP state for L2C
Initialize DRRIP state for LLC
BTB has LRU replacement policy
ITLB has LRU replacement policy
DTLB has LRU replacement policy
STLB has LRU replacement policy
L1I has LRU replacement policy
L1D has LRU replacement policy
Initialize SRRIP state for L2C
Initialize DRRIP state for LLC
BTB has LRU replacement policy
ITLB has LRU replacement policy
DTLB has LRU replacement policy
STLB has LRU replacement policy
L1I has LRU replacement policy
L1D has LRU replacement policy
Initialize SRRIP state for L2C
Initialize DRRIP state for LLC
BTB has LRU replacement policy
ITLB has LRU replacement policy
DTLB has LRU replacement policy
STLB has LRU replacement policy
L1I has LRU replacement policy
L1D has LRU replacement policy
Initialize SRRIP state for L2C
Initialize DRRIP state for LLC
Heartbeat CPU 3 instructions: 10000003 cycles: 2630482 heartbeat IPC: 3.80159 cumulative IPC: 3.80159 (Simulation time: 0 hr 2 min 19 sec) 
Heartbeat CPU 2 instructions: 10000000 cycles: 2673979 heartbeat IPC: 3.73975 cumulative IPC: 3.73975 (Simulation time: 0 hr 2 min 21 sec) 
Heartbeat CPU 1 instructions: 10000001 cycles: 3078520 heartbeat IPC: 3.24831 cumulative IPC: 3.24831 (Simulation time: 0 hr 2 min 43 sec) 
Heartbeat CPU 0 instructions: 10000002 cycles: 3333345 heartbeat IPC: 2.99999 cumulative IPC: 2.99999 (Simulation time: 0 hr 2 min 57 sec) 
Heartbeat CPU 3 instructions: 20000002 cycles: 5257214 heartbeat IPC: 3.80701 cumulative IPC: 3.8043 (Simulation time: 0 hr 4 min 40 sec) 
Heartbeat CPU 2 instructions: 20000002 cycles: 5594073 heartbeat IPC: 3.42455 cumulative IPC: 3.57521 (Simulation time: 0 hr 4 min 57 sec) 
Heartbeat CPU 1 instructions: 20000000 cycles: 6133744 heartbeat IPC: 3.27308 cumulative IPC: 3.26065 (Simulation time: 0 hr 5 min 24 sec) 
Heartbeat CPU 0 instructions: 20000000 cycles: 6666677 heartbeat IPC: 3 cumulative IPC: 3 (Simulation time: 0 hr 5 min 51 sec) 
Heartbeat CPU 3 instructions: 30000002 cycles: 8165855 heartbeat IPC: 3.43803 cumulative IPC: 3.67383 (Simulation time: 0 hr 6 min 48 sec) 
Heartbeat CPU 2 instructions: 30000003 cycles: 8923347 heartbeat IPC: 3.00366 cumulative IPC: 3.36197 (Simulation time: 0 hr 7 min 14 sec) 
Heartbeat CPU 1 instructions: 30000001 cycles: 9205311 heartbeat IPC: 3.25567 cumulative IPC: 3.25899 (Simulation time: 0 hr 7 min 25 sec) 
Heartbeat CPU 0 instructions: 30000001 cycles: 10000011 heartbeat IPC: 3 cumulative IPC: 3 (Simulation time: 0 hr 7 min 55 sec) 
Heartbeat CPU 3 instructions: 40000000 cycles: 11498537 heartbeat IPC: 3.00059 cumulative IPC: 3.4787 (Simulation time: 0 hr 8 min 49 sec) 
Heartbeat CPU 2 instructions: 40000001 cycles: 12255663 heartbeat IPC: 3.00092 cumulative IPC: 3.2638 (Simulation time: 0 hr 9 min 16 sec) 
Heartbeat CPU 1 instructions: 40000000 cycles: 12289318 heartbeat IPC: 3.24253 cumulative IPC: 3.25486 (Simulation time: 0 hr 9 min 17 sec) 
Heartbeat CPU 0 instructions: 40000001 cycles: 13333345 heartbeat IPC: 3 cumulative IPC: 3 (Simulation time: 0 hr 9 min 55 sec) 
Heartbeat CPU 3 instructions: 50000003 cycles: 14831368 heartbeat IPC: 3.00045 cumulative IPC: 3.37123 (Simulation time: 0 hr 10 min 48 sec) 
Heartbeat CPU 1 instructions: 50000003 cycles: 15376633 heartbeat IPC: 3.23906 cumulative IPC: 3.25169 (Simulation time: 0 hr 11 min 7 sec) 
Heartbeat CPU 2 instructions: 50000002 cycles: 15588999 heartbeat IPC: 3 cumulative IPC: 3.20739 (Simulation time: 0 hr 11 min 14 sec) 
Heartbeat CPU 0 instructions: 50000001 cycles: 16666678 heartbeat IPC: 3 cumulative IPC: 3 (Simulation time: 0 hr 11 min 49 sec) 

Warmup complete CPU 0 instructions: 50000001 cycles: 16666678 (Simulation time: 0 hr 11 min 49 sec) 
Warmup complete CPU 1 instructions: 53678944 cycles: 16666677 (Simulation time: 0 hr 11 min 49 sec) 
Warmup complete CPU 2 instructions: 53233029 cycles: 16666677 (Simulation time: 0 hr 11 min 49 sec) 
Warmup complete CPU 3 instructions: 55500774 cycles: 16666677 (Simulation time: 0 hr 11 min 49 sec) 

Heartbeat CPU 3 instructions: 60000002 cycles: 22328099 heartbeat IPC: 1.33391 cumulative IPC: 0.794717 (Simulation time: 0 hr 13 min 32 sec) 
Heartbeat CPU 2 instructions: 60000002 cycles: 23201617 heartbeat IPC: 1.31361 cumulative IPC: 1.03551 (Simulation time: 0 hr 13 min 48 sec) 
Heartbeat CPU 0 instructions: 60000000 cycles: 26621348 heartbeat IPC: 1.00455 cumulative IPC: 1.00455 (Simulation time: 0 hr 14 min 52 sec) 
Heartbeat CPU 2 instructions: 70000000 cycles: 30747616 heartbeat IPC: 1.32521 cumulative IPC: 1.19076 (Simulation time: 0 hr 16 min 11 sec) 
Heartbeat CPU 3 instructions: 70000000 cycles: 31452359 heartbeat IPC: 1.09598 cumulative IPC: 0.980626 (Simulation time: 0 hr 16 min 25 sec) 
Heartbeat CPU 0 instructions: 70000003 cycles: 35434093 heartbeat IPC: 1.13472 cumulative IPC: 1.06568 (Simulation time: 0 hr 17 min 43 sec) 
Heartbeat CPU 2 instructions: 80000001 cycles: 37935486 heartbeat IPC: 1.39123 cumulative IPC: 1.25851 (Simulation time: 0 hr 18 min 38 sec) 
Heartbeat CPU 3 instructions: 80000000 cycles: 39953366 heartbeat IPC: 1.17633 cumulative IPC: 1.05207 (Simulation time: 0 hr 19 min 19 sec) 
Heartbeat CPU 0 instructions: 80000000 cycles: 44200683 heartbeat IPC: 1.14069 cumulative IPC: 1.08956 (Simulation time: 0 hr 20 min 48 sec) 
Heartbeat CPU 2 instructions: 90000000 cycles: 45771416 heartbeat IPC: 1.27617 cumulative IPC: 1.26326 (Simulation time: 0 hr 21 min 18 sec) 
Heartbeat CPU 3 instructions: 90000003 cycles: 48465000 heartbeat IPC: 1.17486 cumulative IPC: 1.08494 (Simulation time: 0 hr 22 min 12 sec) 
Heartbeat CPU 0 instructions: 90000002 cycles: 53040428 heartbeat IPC: 1.13125 cumulative IPC: 1.09969 (Simulation time: 0 hr 23 min 37 sec) 
Heartbeat CPU 1 instructions: 60000002 cycles: 55380719 heartbeat IPC: 0.249974 cumulative IPC: 0.163276 (Simulation time: 0 hr 24 min 19 sec) 
Heartbeat CPU 2 instructions: 100000000 cycles: 56385895 heartbeat IPC: 0.942109 cumulative IPC: 1.17744 (Simulation time: 0 hr 24 min 38 sec) 
Heartbeat CPU 3 instructions: 100000000 cycles: 57133406 heartbeat IPC: 1.15361 cumulative IPC: 1.09965 (Simulation time: 0 hr 24 min 53 sec) 
Heartbeat CPU 0 instructions: 100000000 cycles: 61885718 heartbeat IPC: 1.13054 cumulative IPC: 1.10573 (Simulation time: 0 hr 26 min 15 sec) 
Heartbeat CPU 2 instructions: 110000000 cycles: 68803275 heartbeat IPC: 0.805323 cumulative IPC: 1.08881 (Simulation time: 0 hr 28 min 3 sec) 
Heartbeat CPU 0 instructions: 110000000 cycles: 70893031 heartbeat IPC: 1.11021 cumulative IPC: 1.10647 (Simulation time: 0 hr 28 min 34 sec) 
Heartbeat CPU 3 instructions: 110000000 cycles: 75725981 heartbeat IPC: 0.537849 cumulative IPC: 0.922788 (Simulation time: 0 hr 29 min 40 sec) 
Heartbeat CPU 0 instructions: 120000000 cycles: 79800085 heartbeat IPC: 1.12271 cumulative IPC: 1.10876 (Simulation time: 0 hr 30 min 33 sec) 
Heartbeat CPU 0 instructions: 130000003 cycles: 88791474 heartbeat IPC: 1.11218 cumulative IPC: 1.10919 (Simulation time: 0 hr 32 min 26 sec) 
Heartbeat CPU 2 instructions: 120000001 cycles: 96286221 heartbeat IPC: 0.363862 cumulative IPC: 0.838575 (Simulation time: 0 hr 33 min 57 sec) 
Heartbeat CPU 0 instructions: 140000000 cycles: 98036988 heartbeat IPC: 1.08161 cumulative IPC: 1.10605 (Simulation time: 0 hr 34 min 18 sec) 
Heartbeat CPU 3 instructions: 120000002 cycles: 98155914 heartbeat IPC: 0.445833 cumulative IPC: 0.791506 (Simulation time: 0 hr 34 min 20 sec) 
Heartbeat CPU 0 instructions: 150000000 cycles: 107185880 heartbeat IPC: 1.09303 cumulative IPC: 1.10474 (Simulation time: 0 hr 36 min 15 sec) 
Heartbeat CPU 0 instructions: 160000001 cycles: 116263779 heartbeat IPC: 1.10158 cumulative IPC: 1.10445 (Simulation time: 0 hr 38 min 15 sec) 
Heartbeat CPU 3 instructions: 130000000 cycles: 119862915 heartbeat IPC: 0.460681 cumulative IPC: 0.721918 (Simulation time: 0 hr 39 min 1 sec) 
Heartbeat CPU 0 instructions: 170000002 cycles: 125098708 heartbeat IPC: 1.13187 cumulative IPC: 1.10668 (Simulation time: 0 hr 40 min 9 sec) 
Heartbeat CPU 2 instructions: 130000000 cycles: 132752946 heartbeat IPC: 0.274223 cumulative IPC: 0.661292 (Simulation time: 0 hr 41 min 46 sec) 
Heartbeat CPU 0 instructions: 180000001 cycles: 134075993 heartbeat IPC: 1.11392 cumulative IPC: 1.10724 (Simulation time: 0 hr 42 min 1 sec) 
Heartbeat CPU 3 instructions: 140000001 cycles: 141646433 heartbeat IPC: 0.459063 cumulative IPC: 0.676103 (Simulation time: 0 hr 43 min 33 sec) 
Heartbeat CPU 0 instructions: 190000000 cycles: 143053902 heartbeat IPC: 1.11384 cumulative IPC: 1.10771 (Simulation time: 0 hr 43 min 50 sec) 
Heartbeat CPU 1 instructions: 70000001 cycles: 149846960 heartbeat IPC: 0.105858 cumulative IPC: 0.122549 (Simulation time: 0 hr 45 min 16 sec) 
Heartbeat CPU 0 instructions: 200000001 cycles: 152087200 heartbeat IPC: 1.10702 cumulative IPC: 1.10766 (Simulation time: 0 hr 45 min 45 sec) 
Heartbeat CPU 0 instructions: 210000000 cycles: 161237327 heartbeat IPC: 1.09288 cumulative IPC: 1.10673 (Simulation time: 0 hr 47 min 39 sec) 
Heartbeat CPU 3 instructions: 150000002 cycles: 163452724 heartbeat IPC: 0.458583 cumulative IPC: 0.643789 (Simulation time: 0 hr 48 min 7 sec) 
Heartbeat CPU 0 instructions: 220000000 cycles: 170355176 heartbeat IPC: 1.09675 cumulative IPC: 1.10613 (Simulation time: 0 hr 49 min 28 sec) 
Heartbeat CPU 0 instructions: 230000002 cycles: 179358432 heartbeat IPC: 1.11071 cumulative IPC: 1.10639 (Simulation time: 0 hr 51 min 16 sec) 
Heartbeat CPU 2 instructions: 140000001 cycles: 180618405 heartbeat IPC: 0.208919 cumulative IPC: 0.529223 (Simulation time: 0 hr 51 min 31 sec) 
Heartbeat CPU 3 instructions: 160000000 cycles: 185768670 heartbeat IPC: 0.44811 cumulative IPC: 0.617966 (Simulation time: 0 hr 52 min 33 sec) 
Heartbeat CPU 0 instructions: 240000002 cycles: 188332675 heartbeat IPC: 1.1143 cumulative IPC: 1.1068 (Simulation time: 0 hr 53 min 4 sec) 
*** Reached end of trace for Core: 0 Repeating trace: ./traces/ligra/ligra_BFSCC.com-lj.ungraph.gcc_6.3.0_O3.drop_3500M.length_250M.champsimtrace.xz
Heartbeat CPU 0 instructions: 250000001 cycles: 197325423 heartbeat IPC: 1.11201 cumulative IPC: 1.10706 (Simulation time: 0 hr 54 min 51 sec) 
Finished CPU 0 instructions: 200000000 cycles: 180658745 cumulative IPC: 1.10706 (Simulation time: 0 hr 54 min 51 sec) 
Heartbeat CPU 0 instructions: 260000001 cycles: 206937479 heartbeat IPC: 1.04036 cumulative IPC: 1.10369 (Simulation time: 0 hr 56 min 47 sec) 
Heartbeat CPU 3 instructions: 170000001 cycles: 210541722 heartbeat IPC: 0.403664 cumulative IPC: 0.590583 (Simulation time: 0 hr 57 min 30 sec) 
Heartbeat CPU 0 instructions: 270000001 cycles: 216262926 heartbeat IPC: 1.07233 cumulative IPC: 1.10223 (Simulation time: 0 hr 58 min 42 sec) 
Heartbeat CPU 2 instructions: 150000000 cycles: 223940256 heartbeat IPC: 0.23083 cumulative IPC: 0.466856 (Simulation time: 1 hr 0 min 28 sec) 
Heartbeat CPU 0 instructions: 280000003 cycles: 224960541 heartbeat IPC: 1.14974 cumulative IPC: 1.10421 (Simulation time: 1 hr 0 min 43 sec) 
Heartbeat CPU 1 instructions: 80000000 cycles: 225930339 heartbeat IPC: 0.131435 cumulative IPC: 0.125779 (Simulation time: 1 hr 0 min 57 sec) 
Heartbeat CPU 0 instructions: 290000002 cycles: 233666108 heartbeat IPC: 1.14869 cumulative IPC: 1.10599 (Simulation time: 1 hr 2 min 50 sec) 
Heartbeat CPU 3 instructions: 180000002 cycles: 234639178 heartbeat IPC: 0.414982 cumulative IPC: 0.571169 (Simulation time: 1 hr 3 min 4 sec) 
Heartbeat CPU 0 instructions: 300000001 cycles: 242357289 heartbeat IPC: 1.15059 cumulative IPC: 1.10771 (Simulation time: 1 hr 5 min 15 sec) 
Heartbeat CPU 3 instructions: 190000000 cycles: 244577745 heartbeat IPC: 1.00618 cumulative IPC: 0.590139 (Simulation time: 1 hr 5 min 54 sec) 
Heartbeat CPU 2 instructions: 160000002 cycles: 245520854 heartbeat IPC: 0.463379 cumulative IPC: 0.466528 (Simulation time: 1 hr 6 min 9 sec) 
Heartbeat CPU 0 instructions: 310000001 cycles: 251074441 heartbeat IPC: 1.14716 cumulative IPC: 1.10918 (Simulation time: 1 hr 7 min 40 sec) 
Heartbeat CPU 3 instructions: 200000001 cycles: 254601274 heartbeat IPC: 0.997653 cumulative IPC: 0.607306 (Simulation time: 1 hr 8 min 44 sec) 
Heartbeat CPU 0 instructions: 320000000 cycles: 259799775 heartbeat IPC: 1.14609 cumulative IPC: 1.1105 (Simulation time: 1 hr 10 min 11 sec) 
Heartbeat CPU 1 instructions: 90000001 cycles: 262971589 heartbeat IPC: 0.269969 cumulative IPC: 0.147464 (Simulation time: 1 hr 11 min 8 sec) 
Heartbeat CPU 3 instructions: 210000003 cycles: 264551872 heartbeat IPC: 1.00496 cumulative IPC: 0.623269 (Simulation time: 1 hr 11 min 33 sec) 
Heartbeat CPU 2 instructions: 170000000 cycles: 266592921 heartbeat IPC: 0.474562 cumulative IPC: 0.467206 (Simulation time: 1 hr 12 min 8 sec) 
Heartbeat CPU 0 instructions: 330000000 cycles: 268478690 heartbeat IPC: 1.15222 cumulative IPC: 1.11194 (Simulation time: 1 hr 12 min 37 sec) 
Heartbeat CPU 3 instructions: 220000000 cycles: 275074919 heartbeat IPC: 0.950295 cumulative IPC: 0.636587 (Simulation time: 1 hr 14 min 25 sec) 
Heartbeat CPU 0 instructions: 340000001 cycles: 277207477 heartbeat IPC: 1.14563 cumulative IPC: 1.11307 (Simulation time: 1 hr 14 min 55 sec) 
Heartbeat CPU 0 instructions: 350000003 cycles: 285917694 heartbeat IPC: 1.14808 cumulative IPC: 1.1142 (Simulation time: 1 hr 17 min 15 sec) 
Heartbeat CPU 3 instructions: 230000000 cycles: 286850413 heartbeat IPC: 0.849221 cumulative IPC: 0.645854 (Simulation time: 1 hr 17 min 30 sec) 
Heartbeat CPU 2 instructions: 180000000 cycles: 291190752 heartbeat IPC: 0.40654 cumulative IPC: 0.46177 (Simulation time: 1 hr 18 min 42 sec) 
Heartbeat CPU 0 instructions: 360000000 cycles: 294629364 heartbeat IPC: 1.14789 cumulative IPC: 1.11526 (Simulation time: 1 hr 19 min 37 sec) 
Heartbeat CPU 3 instructions: 240000000 cycles: 300150044 heartbeat IPC: 0.751901 cumulative IPC: 0.650829 (Simulation time: 1 hr 21 min 5 sec) 
Heartbeat CPU 1 instructions: 100000001 cycles: 300469628 heartbeat IPC: 0.266681 cumulative IPC: 0.163216 (Simulation time: 1 hr 21 min 10 sec) 
Heartbeat CPU 0 instructions: 370000001 cycles: 303361166 heartbeat IPC: 1.14524 cumulative IPC: 1.11617 (Simulation time: 1 hr 21 min 57 sec) 
Heartbeat CPU 2 instructions: 190000002 cycles: 308041060 heartbeat IPC: 0.593461 cumulative IPC: 0.469386 (Simulation time: 1 hr 23 min 5 sec) 
Heartbeat CPU 0 instructions: 380000002 cycles: 312117643 heartbeat IPC: 1.14201 cumulative IPC: 1.11694 (Simulation time: 1 hr 24 min 9 sec) 
*** Reached end of trace for Core: 3 Repeating trace: ./traces/ligra/ligra_Components-Shortcut.com-lj.ungraph.gcc_6.3.0_O3.drop_21000M.length_250M.champsimtrace.xz
Heartbeat CPU 3 instructions: 250000000 cycles: 313738183 heartbeat IPC: 0.735936 cumulative IPC: 0.654722 (Simulation time: 1 hr 24 min 36 sec) 
Finished CPU 3 instructions: 200000001 cycles: 300442991 cumulative IPC: 0.665684 (Simulation time: 1 hr 25 min 43 sec) 
Heartbeat CPU 3 instructions: 260000001 cycles: 320171164 heartbeat IPC: 1.55449 cumulative IPC: 0.673793 (Simulation time: 1 hr 26 min 42 sec) 
Heartbeat CPU 0 instructions: 390000001 cycles: 320908946 heartbeat IPC: 1.13749 cumulative IPC: 1.11753 (Simulation time: 1 hr 26 min 55 sec) 
Heartbeat CPU 3 instructions: 270000002 cycles: 327312039 heartbeat IPC: 1.40039 cumulative IPC: 0.690495 (Simulation time: 1 hr 28 min 48 sec) 
Heartbeat CPU 0 instructions: 400000000 cycles: 329775400 heartbeat IPC: 1.12785 cumulative IPC: 1.11782 (Simulation time: 1 hr 29 min 27 sec) 
Heartbeat CPU 2 instructions: 200000000 cycles: 332621117 heartbeat IPC: 0.406834 cumulative IPC: 0.464519 (Simulation time: 1 hr 30 min 10 sec) 
Heartbeat CPU 3 instructions: 280000000 cycles: 335572649 heartbeat IPC: 1.21056 cumulative IPC: 0.703967 (Simulation time: 1 hr 30 min 52 sec) 
Heartbeat CPU 0 instructions: 410000000 cycles: 338541334 heartbeat IPC: 1.14078 cumulative IPC: 1.11845 (Simulation time: 1 hr 31 min 37 sec) 
Heartbeat CPU 3 instructions: 290000003 cycles: 343974948 heartbeat IPC: 1.19015 cumulative IPC: 0.716448 (Simulation time: 1 hr 32 min 57 sec) 
Heartbeat CPU 1 instructions: 110000000 cycles: 345623244 heartbeat IPC: 0.221466 cumulative IPC: 0.171211 (Simulation time: 1 hr 33 min 24 sec) 
Heartbeat CPU 0 instructions: 420000000 cycles: 347180791 heartbeat IPC: 1.15748 cumulative IPC: 1.11947 (Simulation time: 1 hr 33 min 47 sec) 
Heartbeat CPU 3 instructions: 300000000 cycles: 352376707 heartbeat IPC: 1.19023 cumulative IPC: 0.728305 (Simulation time: 1 hr 35 min 3 sec) 
Heartbeat CPU 2 instructions: 210000001 cycles: 354567265 heartbeat IPC: 0.455661 cumulative IPC: 0.463944 (Simulation time: 1 hr 35 min 35 sec) 
Heartbeat CPU 0 instructions: 430000002 cycles: 355910022 heartbeat IPC: 1.14558 cumulative IPC: 1.12014 (Simulation time: 1 hr 35 min 56 sec) 
Heartbeat CPU 3 instructions: 310000000 cycles: 360740112 heartbeat IPC: 1.19569 cumulative IPC: 0.739665 (Simulation time: 1 hr 37 min 15 sec) 
Heartbeat CPU 0 instructions: 440000000 cycles: 364694154 heartbeat IPC: 1.13842 cumulative IPC: 1.1206 (Simulation time: 1 hr 38 min 20 sec) 
Heartbeat CPU 3 instructions: 320000002 cycles: 369112860 heartbeat IPC: 1.19435 cumulative IPC: 0.750467 (Simulation time: 1 hr 39 min 30 sec) 
Heartbeat CPU 0 instructions: 450000003 cycles: 373546232 heartbeat IPC: 1.12968 cumulative IPC: 1.12083 (Simulation time: 1 hr 40 min 33 sec) 
Heartbeat CPU 2 instructions: 220000000 cycles: 377411801 heartbeat IPC: 0.437741 cumulative IPC: 0.462285 (Simulation time: 1 hr 41 min 30 sec) 
Heartbeat CPU 3 instructions: 330000000 cycles: 377531176 heartbeat IPC: 1.18789 cumulative IPC: 0.760671 (Simulation time: 1 hr 41 min 32 sec) 
Heartbeat CPU 0 instructions: 460000001 cycles: 382421452 heartbeat IPC: 1.12673 cumulative IPC: 1.12097 (Simulation time: 1 hr 42 min 40 sec) 
Heartbeat CPU 3 instructions: 340000001 cycles: 385981747 heartbeat IPC: 1.18335 cumulative IPC: 0.770343 (Simulation time: 1 hr 43 min 29 sec) 
Heartbeat CPU 0 instructions: 470000000 cycles: 391418618 heartbeat IPC: 1.11146 cumulative IPC: 1.12074 (Simulation time: 1 hr 44 min 46 sec) 
Heartbeat CPU 3 instructions: 350000002 cycles: 394583620 heartbeat IPC: 1.16254 cumulative IPC: 0.77927 (Simulation time: 1 hr 45 min 29 sec) 
Heartbeat CPU 1 instructions: 120000000 cycles: 394758773 heartbeat IPC: 0.203519 cumulative IPC: 0.17541 (Simulation time: 1 hr 45 min 32 sec) 
Heartbeat CPU 0 instructions: 480000000 cycles: 400530845 heartbeat IPC: 1.09743 cumulative IPC: 1.12019 (Simulation time: 1 hr 46 min 43 sec) 
Heartbeat CPU 0 instructions: 490000002 cycles: 410071170 heartbeat IPC: 1.04818 cumulative IPC: 1.11844 (Simulation time: 1 hr 48 min 33 sec) 
Heartbeat CPU 3 instructions: 360000001 cycles: 415168667 heartbeat IPC: 0.485789 cumulative IPC: 0.76411 (Simulation time: 1 hr 49 min 33 sec) 
*** Reached end of trace for Core: 0 Repeating trace: ./traces/ligra/ligra_BFSCC.com-lj.ungraph.gcc_6.3.0_O3.drop_3500M.length_250M.champsimtrace.xz
Heartbeat CPU 0 instructions: 500000003 cycles: 419596084 heartbeat IPC: 1.04988 cumulative IPC: 1.11682 (Simulation time: 1 hr 50 min 21 sec) 
Heartbeat CPU 0 instructions: 510000002 cycles: 429098056 heartbeat IPC: 1.05241 cumulative IPC: 1.11534 (Simulation time: 1 hr 52 min 7 sec) 
Heartbeat CPU 2 instructions: 230000001 cycles: 436926285 heartbeat IPC: 0.168026 cumulative IPC: 0.420614 (Simulation time: 1 hr 53 min 36 sec) 
Heartbeat CPU 0 instructions: 520000002 cycles: 438841144 heartbeat IPC: 1.02637 cumulative IPC: 1.11328 (Simulation time: 1 hr 53 min 56 sec) 
Heartbeat CPU 3 instructions: 370000002 cycles: 440384381 heartbeat IPC: 0.396578 cumulative IPC: 0.742238 (Simulation time: 1 hr 54 min 11 sec) 
Heartbeat CPU 0 instructions: 530000000 cycles: 448234589 heartbeat IPC: 1.06457 cumulative IPC: 1.11222 (Simulation time: 1 hr 55 min 40 sec) 
Heartbeat CPU 0 instructions: 540000000 cycles: 457778586 heartbeat IPC: 1.04778 cumulative IPC: 1.11083 (Simulation time: 1 hr 57 min 32 sec) 
Heartbeat CPU 3 instructions: 380000000 cycles: 464875143 heartbeat IPC: 0.408317 cumulative IPC: 0.723992 (Simulation time: 1 hr 58 min 49 sec) 
Heartbeat CPU 0 instructions: 550000000 cycles: 467424491 heartbeat IPC: 1.03671 cumulative IPC: 1.10924 (Simulation time: 1 hr 59 min 18 sec) 
Heartbeat CPU 0 instructions: 560000000 cycles: 477026170 heartbeat IPC: 1.04148 cumulative IPC: 1.10783 (Simulation time: 2 hr 1 min 2 sec) 
Heartbeat CPU 0 instructions: 570000001 cycles: 486707579 heartbeat IPC: 1.03291 cumulative IPC: 1.10629 (Simulation time: 2 hr 2 min 48 sec) 
Heartbeat CPU 3 instructions: 390000001 cycles: 490238337 heartbeat IPC: 0.394272 cumulative IPC: 0.706333 (Simulation time: 2 hr 3 min 27 sec) 
Heartbeat CPU 1 instructions: 130000000 cycles: 495726051 heartbeat IPC: 0.099042 cumulative IPC: 0.159314 (Simulation time: 2 hr 4 min 29 sec) 
Heartbeat CPU 0 instructions: 580000003 cycles: 496403107 heartbeat IPC: 1.0314 cumulative IPC: 1.10477 (Simulation time: 2 hr 4 min 39 sec) 
Heartbeat CPU 0 instructions: 590000002 cycles: 506050823 heartbeat IPC: 1.03651 cumulative IPC: 1.10343 (Simulation time: 2 hr 6 min 25 sec) 
Heartbeat CPU 2 instructions: 240000003 cycles: 513724152 heartbeat IPC: 0.130212 cumulative IPC: 0.375745 (Simulation time: 2 hr 7 min 48 sec) 
Heartbeat CPU 3 instructions: 400000001 cycles: 515310857 heartbeat IPC: 0.398843 cumulative IPC: 0.690872 (Simulation time: 2 hr 8 min 7 sec) 
Heartbeat CPU 0 instructions: 600000002 cycles: 515574556 heartbeat IPC: 1.05001 cumulative IPC: 1.10241 (Simulation time: 2 hr 8 min 9 sec) 
Heartbeat CPU 0 instructions: 610000001 cycles: 525232086 heartbeat IPC: 1.03546 cumulative IPC: 1.10114 (Simulation time: 2 hr 9 min 56 sec) 
Heartbeat CPU 0 instructions: 620000002 cycles: 534656921 heartbeat IPC: 1.06103 cumulative IPC: 1.10041 (Simulation time: 2 hr 11 min 41 sec) 
Heartbeat CPU 3 instructions: 410000001 cycles: 540213691 heartbeat IPC: 0.401561 cumulative IPC: 0.677111 (Simulation time: 2 hr 12 min 46 sec) 
Heartbeat CPU 0 instructions: 630000000 cycles: 544317849 heartbeat IPC: 1.0351 cumulative IPC: 1.09921 (Simulation time: 2 hr 13 min 31 sec) 
Heartbeat CPU 0 instructions: 640000003 cycles: 553995933 heartbeat IPC: 1.03326 cumulative IPC: 1.09802 (Simulation time: 2 hr 15 min 21 sec) 
Heartbeat CPU 0 instructions: 650000001 cycles: 563448336 heartbeat IPC: 1.05793 cumulative IPC: 1.09733 (Simulation time: 2 hr 17 min 7 sec) 
Heartbeat CPU 3 instructions: 420000002 cycles: 565565661 heartbeat IPC: 0.394447 cumulative IPC: 0.664055 (Simulation time: 2 hr 17 min 30 sec) 
Heartbeat CPU 0 instructions: 660000000 cycles: 572581830 heartbeat IPC: 1.09487 cumulative IPC: 1.09729 (Simulation time: 2 hr 18 min 46 sec) 
*** Reached end of trace for Core: 2 Repeating trace: ./traces/ligra/ligra_PageRank.com-lj.ungraph.gcc_6.3.0_O3.drop_51000M.length_250M.champsimtrace.xz
Heartbeat CPU 2 instructions: 250000000 cycles: 579249639 heartbeat IPC: 0.152612 cumulative IPC: 0.349756 (Simulation time: 2 hr 20 min 13 sec) 
Heartbeat CPU 0 instructions: 670000001 cycles: 581276076 heartbeat IPC: 1.15019 cumulative IPC: 1.0981 (Simulation time: 2 hr 20 min 39 sec) 
Finished CPU 2 instructions: 200000000 cycles: 569806838 cumulative IPC: 0.350996 (Simulation time: 2 hr 21 min 40 sec) 
Heartbeat CPU 1 instructions: 140000000 cycles: 587132721 heartbeat IPC: 0.109401 cumulative IPC: 0.151317 (Simulation time: 2 hr 21 min 48 sec) 
Heartbeat CPU 0 instructions: 680000003 cycles: 590363173 heartbeat IPC: 1.10046 cumulative IPC: 1.09814 (Simulation time: 2 hr 22 min 25 sec) 
Heartbeat CPU 3 instructions: 430000000 cycles: 596521856 heartbeat IPC: 0.323037 cumulative IPC: 0.64585 (Simulation time: 2 hr 23 min 47 sec) 
Heartbeat CPU 0 instructions: 690000002 cycles: 599519722 heartbeat IPC: 1.09211 cumulative IPC: 1.09805 (Simulation time: 2 hr 24 min 27 sec) 
Heartbeat CPU 2 instructions: 260000001 cycles: 603852865 heartbeat IPC: 0.406451 cumulative IPC: 0.352132 (Simulation time: 2 hr 25 min 27 sec) 
Heartbeat CPU 3 instructions: 440000000 cycles: 608316583 heartbeat IPC: 0.847836 cumulative IPC: 0.649876 (Simulation time: 2 hr 26 min 31 sec) 
Heartbeat CPU 0 instructions: 700000003 cycles: 608838339 heartbeat IPC: 1.07312 cumulative IPC: 1.09765 (Simulation time: 2 hr 26 min 39 sec) 
Heartbeat CPU 0 instructions: 710000002 cycles: 618111070 heartbeat IPC: 1.07843 cumulative IPC: 1.09736 (Simulation time: 2 hr 28 min 54 sec) 
Heartbeat CPU 3 instructions: 450000003 cycles: 620238846 heartbeat IPC: 0.838767 cumulative IPC: 0.653607 (Simulation time: 2 hr 29 min 23 sec) 
Heartbeat CPU 0 instructions: 720000001 cycles: 627087281 heartbeat IPC: 1.11406 cumulative IPC: 1.0976 (Simulation time: 2 hr 31 min 11 sec) 
Heartbeat CPU 3 instructions: 460000001 cycles: 629880637 heartbeat IPC: 1.03715 cumulative IPC: 0.659638 (Simulation time: 2 hr 31 min 56 sec) 
Heartbeat CPU 2 instructions: 270000001 cycles: 633631650 heartbeat IPC: 0.33581 cumulative IPC: 0.351344 (Simulation time: 2 hr 32 min 57 sec) 
Heartbeat CPU 0 instructions: 730000001 cycles: 635857830 heartbeat IPC: 1.14018 cumulative IPC: 1.09821 (Simulation time: 2 hr 33 min 32 sec) 
Heartbeat CPU 3 instructions: 470000002 cycles: 639855037 heartbeat IPC: 1.00257 cumulative IPC: 0.665127 (Simulation time: 2 hr 34 min 36 sec) 
Heartbeat CPU 0 instructions: 740000003 cycles: 644604807 heartbeat IPC: 1.14325 cumulative IPC: 1.09883 (Simulation time: 2 hr 35 min 49 sec) 
Heartbeat CPU 1 instructions: 150000000 cycles: 644775371 heartbeat IPC: 0.173483 cumulative IPC: 0.153351 (Simulation time: 2 hr 35 min 52 sec) 
Heartbeat CPU 3 instructions: 480000002 cycles: 650927698 heartbeat IPC: 0.903125 cumulative IPC: 0.669282 (Simulation time: 2 hr 37 min 32 sec) 
*** Reached end of trace for Core: 0 Repeating trace: ./traces/ligra/ligra_BFSCC.com-lj.ungraph.gcc_6.3.0_O3.drop_3500M.length_250M.champsimtrace.xz
Heartbeat CPU 0 instructions: 750000000 cycles: 653312671 heartbeat IPC: 1.14839 cumulative IPC: 1.09951 (Simulation time: 2 hr 38 min 11 sec) 
Heartbeat CPU 0 instructions: 760000003 cycles: 662006491 heartbeat IPC: 1.15024 cumulative IPC: 1.1002 (Simulation time: 2 hr 40 min 23 sec) 
Heartbeat CPU 3 instructions: 490000002 cycles: 663525459 heartbeat IPC: 0.793792 cumulative IPC: 0.671706 (Simulation time: 2 hr 40 min 48 sec) 
Heartbeat CPU 0 instructions: 770000000 cycles: 670728416 heartbeat IPC: 1.14654 cumulative IPC: 1.10081 (Simulation time: 2 hr 42 min 37 sec) 
Heartbeat CPU 2 instructions: 280000001 cycles: 670888523 heartbeat IPC: 0.268407 cumulative IPC: 0.346621 (Simulation time: 2 hr 42 min 40 sec) 
*** Reached end of trace for Core: 3 Repeating trace: ./traces/ligra/ligra_Components-Shortcut.com-lj.ungraph.gcc_6.3.0_O3.drop_21000M.length_250M.champsimtrace.xz
Heartbeat CPU 3 instructions: 500000002 cycles: 676273702 heartbeat IPC: 0.784422 cumulative IPC: 0.673885 (Simulation time: 2 hr 44 min 5 sec) 
Heartbeat CPU 0 instructions: 780000003 cycles: 679427678 heartbeat IPC: 1.14952 cumulative IPC: 1.10145 (Simulation time: 2 hr 45 min 6 sec) 
Heartbeat CPU 1 instructions: 160000000 cycles: 680089529 heartbeat IPC: 0.283173 cumulative IPC: 0.160261 (Simulation time: 2 hr 45 min 16 sec) 
Heartbeat CPU 3 instructions: 510000003 cycles: 683173934 heartbeat IPC: 1.44923 cumulative IPC: 0.681912 (Simulation time: 2 hr 46 min 5 sec) 
Heartbeat CPU 2 instructions: 290000000 cycles: 688523301 heartbeat IPC: 0.567061 cumulative IPC: 0.352407 (Simulation time: 2 hr 47 min 21 sec) 
Heartbeat CPU 0 instructions: 790000003 cycles: 689788654 heartbeat IPC: 0.96516 cumulative IPC: 1.09935 (Simulation time: 2 hr 47 min 39 sec) 
Heartbeat CPU 3 instructions: 520000001 cycles: 696790962 heartbeat IPC: 0.734374 cumulative IPC: 0.682962 (Simulation time: 2 hr 49 min 23 sec) 
Heartbeat CPU 0 instructions: 800000000 cycles: 700988828 heartbeat IPC: 0.892843 cumulative IPC: 1.09598 (Simulation time: 2 hr 50 min 32 sec) 
Heartbeat CPU 2 instructions: 300000003 cycles: 701578780 heartbeat IPC: 0.765962 cumulative IPC: 0.36029 (Simulation time: 2 hr 50 min 39 sec) 
Heartbeat CPU 3 instructions: 530000002 cycles: 710134057 heartbeat IPC: 0.749451 cumulative IPC: 0.684242 (Simulation time: 2 hr 52 min 50 sec) 
Heartbeat CPU 0 instructions: 810000001 cycles: 711747947 heartbeat IPC: 0.929444 cumulative IPC: 1.0934 (Simulation time: 2 hr 53 min 17 sec) 
Heartbeat CPU 2 instructions: 310000000 cycles: 713130097 heartbeat IPC: 0.865702 cumulative IPC: 0.368673 (Simulation time: 2 hr 53 min 38 sec) 
Heartbeat CPU 3 instructions: 540000001 cycles: 719832370 heartbeat IPC: 1.03111 cumulative IPC: 0.689026 (Simulation time: 2 hr 55 min 41 sec) 
Heartbeat CPU 2 instructions: 320000001 cycles: 720579056 heartbeat IPC: 1.34247 cumulative IPC: 0.378978 (Simulation time: 2 hr 55 min 56 sec) 
Heartbeat CPU 0 instructions: 820000002 cycles: 720925686 heartbeat IPC: 1.08959 cumulative IPC: 1.09335 (Simulation time: 2 hr 56 min 1 sec) 
Heartbeat CPU 2 instructions: 330000000 cycles: 727430185 heartbeat IPC: 1.45961 cumulative IPC: 0.389394 (Simulation time: 2 hr 58 min 10 sec) 
Heartbeat CPU 3 instructions: 550000000 cycles: 728229865 heartbeat IPC: 1.19083 cumulative IPC: 0.694948 (Simulation time: 2 hr 58 min 27 sec) 
Heartbeat CPU 0 instructions: 830000003 cycles: 729605318 heartbeat IPC: 1.15212 cumulative IPC: 1.09406 (Simulation time: 2 hr 58 min 56 sec) 
Heartbeat CPU 2 instructions: 340000001 cycles: 734680205 heartbeat IPC: 1.37931 cumulative IPC: 0.399389 (Simulation time: 3 hr 0 min 43 sec) 
Heartbeat CPU 3 instructions: 560000001 cycles: 736585046 heartbeat IPC: 1.19686 cumulative IPC: 0.700773 (Simulation time: 3 hr 1 min 24 sec) 
Heartbeat CPU 0 instructions: 840000001 cycles: 738315820 heartbeat IPC: 1.14804 cumulative IPC: 1.09471 (Simulation time: 3 hr 1 min 55 sec) 
Heartbeat CPU 1 instructions: 170000001 cycles: 742785397 heartbeat IPC: 0.1595 cumulative IPC: 0.160196 (Simulation time: 3 hr 3 min 28 sec) 
Heartbeat CPU 2 instructions: 350000001 cycles: 743971613 heartbeat IPC: 1.07626 cumulative IPC: 0.408037 (Simulation time: 3 hr 3 min 52 sec) 
Heartbeat CPU 3 instructions: 570000003 cycles: 744956212 heartbeat IPC: 1.19458 cumulative IPC: 0.706449 (Simulation time: 3 hr 4 min 10 sec) 
Heartbeat CPU 0 instructions: 850000003 cycles: 747040699 heartbeat IPC: 1.14615 cumulative IPC: 1.09533 (Simulation time: 3 hr 4 min 49 sec) 
Heartbeat CPU 3 instructions: 580000000 cycles: 753353501 heartbeat IPC: 1.19086 cumulative IPC: 0.71197 (Simulation time: 3 hr 6 min 46 sec) 
Heartbeat CPU 2 instructions: 360000002 cycles: 755044033 heartbeat IPC: 0.903145 cumulative IPC: 0.415461 (Simulation time: 3 hr 7 min 17 sec) 
Heartbeat CPU 0 instructions: 860000001 cycles: 755808593 heartbeat IPC: 1.14052 cumulative IPC: 1.09587 (Simulation time: 3 hr 7 min 28 sec) 
Heartbeat CPU 3 instructions: 590000001 cycles: 761763172 heartbeat IPC: 1.18911 cumulative IPC: 0.717356 (Simulation time: 3 hr 9 min 1 sec) 
Heartbeat CPU 0 instructions: 870000003 cycles: 764622309 heartbeat IPC: 1.1346 cumulative IPC: 1.09632 (Simulation time: 3 hr 9 min 47 sec) 
Heartbeat CPU 3 instructions: 600000000 cycles: 770332749 heartbeat IPC: 1.16692 cumulative IPC: 0.722467 (Simulation time: 3 hr 11 min 18 sec) 
Heartbeat CPU 0 instructions: 880000000 cycles: 773459333 heartbeat IPC: 1.1316 cumulative IPC: 1.09673 (Simulation time: 3 hr 12 min 7 sec) 
Heartbeat CPU 2 instructions: 370000000 cycles: 773487243 heartbeat IPC: 0.542205 cumulative IPC: 0.41855 (Simulation time: 3 hr 12 min 7 sec) 
Heartbeat CPU 0 instructions: 890000000 cycles: 782816326 heartbeat IPC: 1.06872 cumulative IPC: 1.09639 (Simulation time: 3 hr 14 min 13 sec) 
Heartbeat CPU 3 instructions: 610000001 cycles: 789815832 heartbeat IPC: 0.513266 cumulative IPC: 0.717196 (Simulation time: 3 hr 15 min 45 sec) 
Heartbeat CPU 0 instructions: 900000000 cycles: 791948239 heartbeat IPC: 1.09506 cumulative IPC: 1.09638 (Simulation time: 3 hr 16 min 12 sec) 
Heartbeat CPU 0 instructions: 910000000 cycles: 801306824 heartbeat IPC: 1.06854 cumulative IPC: 1.09604 (Simulation time: 3 hr 18 min 14 sec) 
Heartbeat CPU 0 instructions: 920000000 cycles: 810662791 heartbeat IPC: 1.06884 cumulative IPC: 1.09572 (Simulation time: 3 hr 20 min 15 sec) 
Heartbeat CPU 2 instructions: 380000002 cycles: 811125110 heartbeat IPC: 0.26569 cumulative IPC: 0.411308 (Simulation time: 3 hr 20 min 21 sec) 
Heartbeat CPU 3 instructions: 620000001 cycles: 812417363 heartbeat IPC: 0.442448 cumulative IPC: 0.709392 (Simulation time: 3 hr 20 min 38 sec) 
Heartbeat CPU 1 instructions: 180000000 cycles: 814615052 heartbeat IPC: 0.139218 cumulative IPC: 0.158307 (Simulation time: 3 hr 21 min 6 sec) 
Heartbeat CPU 0 instructions: 930000000 cycles: 820095783 heartbeat IPC: 1.06011 cumulative IPC: 1.09531 (Simulation time: 3 hr 22 min 18 sec) 
Heartbeat CPU 0 instructions: 940000000 cycles: 829287638 heartbeat IPC: 1.08792 cumulative IPC: 1.09522 (Simulation time: 3 hr 24 min 18 sec) 
Heartbeat CPU 3 instructions: 630000002 cycles: 835484234 heartbeat IPC: 0.433522 cumulative IPC: 0.701621 (Simulation time: 3 hr 25 min 35 sec) 
Heartbeat CPU 0 instructions: 950000000 cycles: 838789971 heartbeat IPC: 1.05237 cumulative IPC: 1.09473 (Simulation time: 3 hr 26 min 13 sec) 
Heartbeat CPU 0 instructions: 960000003 cycles: 848215322 heartbeat IPC: 1.06097 cumulative IPC: 1.09434 (Simulation time: 3 hr 28 min 6 sec) 
Heartbeat CPU 0 instructions: 970000002 cycles: 857952869 heartbeat IPC: 1.02695 cumulative IPC: 1.09356 (Simulation time: 3 hr 30 min 2 sec) 
Heartbeat CPU 3 instructions: 640000001 cycles: 859238821 heartbeat IPC: 0.420971 cumulative IPC: 0.693708 (Simulation time: 3 hr 30 min 18 sec) 
Heartbeat CPU 2 instructions: 390000000 cycles: 864090425 heartbeat IPC: 0.188803 cumulative IPC: 0.397401 (Simulation time: 3 hr 31 min 16 sec) 
Heartbeat CPU 0 instructions: 980000002 cycles: 867516424 heartbeat IPC: 1.04564 cumulative IPC: 1.09302 (Simulation time: 3 hr 31 min 57 sec) 
Heartbeat CPU 0 instructions: 990000000 cycles: 877011339 heartbeat IPC: 1.0532 cumulative IPC: 1.09259 (Simulation time: 3 hr 33 min 54 sec) 
Heartbeat CPU 3 instructions: 650000003 cycles: 882715189 heartbeat IPC: 0.42596 cumulative IPC: 0.68645 (Simulation time: 3 hr 35 min 3 sec) 
*** Reached end of trace for Core: 0 Repeating trace: ./traces/ligra/ligra_BFSCC.com-lj.ungraph.gcc_6.3.0_O3.drop_3500M.length_250M.champsimtrace.xz
Heartbeat CPU 0 instructions: 1000000003 cycles: 886460398 heartbeat IPC: 1.05831 cumulative IPC: 1.09221 (Simulation time: 3 hr 35 min 47 sec) 
Heartbeat CPU 0 instructions: 1010000000 cycles: 895576992 heartbeat IPC: 1.0969 cumulative IPC: 1.09226 (Simulation time: 3 hr 37 min 33 sec) 
Heartbeat CPU 0 instructions: 1020000000 cycles: 905042424 heartbeat IPC: 1.05648 cumulative IPC: 1.09188 (Simulation time: 3 hr 39 min 25 sec) 
Heartbeat CPU 3 instructions: 660000000 cycles: 905964353 heartbeat IPC: 0.430123 cumulative IPC: 0.679749 (Simulation time: 3 hr 39 min 36 sec) 
Heartbeat CPU 1 instructions: 190000000 cycles: 910611962 heartbeat IPC: 0.10417 cumulative IPC: 0.152494 (Simulation time: 3 hr 40 min 30 sec) 
Heartbeat CPU 0 instructions: 1030000002 cycles: 914446657 heartbeat IPC: 1.06335 cumulative IPC: 1.09158 (Simulation time: 3 hr 41 min 13 sec) 
Heartbeat CPU 2 instructions: 400000002 cycles: 922445752 heartbeat IPC: 0.171364 cumulative IPC: 0.382838 (Simulation time: 3 hr 42 min 38 sec) 
Heartbeat CPU 0 instructions: 1040000002 cycles: 923811354 heartbeat IPC: 1.06784 cumulative IPC: 1.09134 (Simulation time: 3 hr 42 min 54 sec) 
Heartbeat CPU 3 instructions: 670000003 cycles: 929621508 heartbeat IPC: 0.422705 cumulative IPC: 0.673088 (Simulation time: 3 hr 44 min 1 sec) 
Heartbeat CPU 0 instructions: 1050000000 cycles: 933118335 heartbeat IPC: 1.07446 cumulative IPC: 1.09117 (Simulation time: 3 hr 44 min 41 sec) 
Heartbeat CPU 0 instructions: 1060000000 cycles: 941830193 heartbeat IPC: 1.14786 cumulative IPC: 1.0917 (Simulation time: 3 hr 46 min 37 sec) 
Heartbeat CPU 0 instructions: 1070000003 cycles: 950554555 heartbeat IPC: 1.14622 cumulative IPC: 1.09221 (Simulation time: 3 hr 48 min 38 sec) 
Heartbeat CPU 2 instructions: 410000001 cycles: 953111262 heartbeat IPC: 0.326099 cumulative IPC: 0.38098 (Simulation time: 3 hr 49 min 18 sec) 
Heartbeat CPU 3 instructions: 680000002 cycles: 953997680 heartbeat IPC: 0.410237 cumulative IPC: 0.666253 (Simulation time: 3 hr 49 min 32 sec) 
Heartbeat CPU 0 instructions: 1080000000 cycles: 959246251 heartbeat IPC: 1.15052 cumulative IPC: 1.09275 (Simulation time: 3 hr 51 min 2 sec) 
Heartbeat CPU 3 instructions: 690000000 cycles: 964008841 heartbeat IPC: 0.998885 cumulative IPC: 0.669768 (Simulation time: 3 hr 52 min 20 sec) 
Heartbeat CPU 1 instructions: 200000001 cycles: 964736209 heartbeat IPC: 0.18476 cumulative IPC: 0.154336 (Simulation time: 3 hr 52 min 32 sec) 
Heartbeat CPU 0 instructions: 1090000002 cycles: 967978520 heartbeat IPC: 1.14518 cumulative IPC: 1.09323 (Simulation time: 3 hr 53 min 28 sec) 
Heartbeat CPU 3 instructions: 700000001 cycles: 973759415 heartbeat IPC: 1.02558 cumulative IPC: 0.673393 (Simulation time: 3 hr 55 min 3 sec) 
Heartbeat CPU 2 instructions: 420000001 cycles: 974034411 heartbeat IPC: 0.47794 cumulative IPC: 0.383099 (Simulation time: 3 hr 55 min 6 sec) 
Heartbeat CPU 0 instructions: 1100000000 cycles: 976680494 heartbeat IPC: 1.14916 cumulative IPC: 1.09373 (Simulation time: 3 hr 55 min 51 sec) 
Heartbeat CPU 3 instructions: 710000000 cycles: 983644804 heartbeat IPC: 1.01159 cumulative IPC: 0.67685 (Simulation time: 3 hr 57 min 47 sec) 
Heartbeat CPU 0 instructions: 1110000000 cycles: 985403693 heartbeat IPC: 1.14637 cumulative IPC: 1.09421 (Simulation time: 3 hr 58 min 15 sec) 
Heartbeat CPU 3 instructions: 720000001 cycles: 994039221 heartbeat IPC: 0.962055 cumulative IPC: 0.679883 (Simulation time: 4 hr 0 min 38 sec) 
Heartbeat CPU 0 instructions: 1120000003 cycles: 994146027 heartbeat IPC: 1.14386 cumulative IPC: 1.09465 (Simulation time: 4 hr 0 min 40 sec) 
Heartbeat CPU 2 instructions: 430000000 cycles: 997921029 heartbeat IPC: 0.418644 cumulative IPC: 0.383965 (Simulation time: 4 hr 1 min 39 sec) 
Heartbeat CPU 1 instructions: 210000000 cycles: 1002743758 heartbeat IPC: 0.263106 cumulative IPC: 0.158528 (Simulation time: 4 hr 2 min 58 sec) 
Heartbeat CPU 0 instructions: 1130000001 cycles: 1002894412 heartbeat IPC: 1.14307 cumulative IPC: 1.09508 (Simulation time: 4 hr 3 min 1 sec) 
Heartbeat CPU 3 instructions: 730000000 cycles: 1005368469 heartbeat IPC: 0.882671 cumulative IPC: 0.682207 (Simulation time: 4 hr 3 min 39 sec) 
Heartbeat CPU 0 instructions: 1140000000 cycles: 1011639118 heartbeat IPC: 1.14355 cumulative IPC: 1.09551 (Simulation time: 4 hr 5 min 24 sec) 
Heartbeat CPU 2 instructions: 440000000 cycles: 1014942323 heartbeat IPC: 0.587499 cumulative IPC: 0.387435 (Simulation time: 4 hr 6 min 20 sec) 
Heartbeat CPU 3 instructions: 740000001 cycles: 1018760724 heartbeat IPC: 0.7467 cumulative IPC: 0.683069 (Simulation time: 4 hr 7 min 22 sec) 
Heartbeat CPU 0 instructions: 1150000003 cycles: 1020376101 heartbeat IPC: 1.14456 cumulative IPC: 1.09593 (Simulation time: 4 hr 7 min 47 sec) 
Heartbeat CPU 0 instructions: 1160000000 cycles: 1029124274 heartbeat IPC: 1.1431 cumulative IPC: 1.09634 (Simulation time: 4 hr 10 min 15 sec) 
*** Reached end of trace for Core: 3 Repeating trace: ./traces/ligra/ligra_Components-Shortcut.com-lj.ungraph.gcc_6.3.0_O3.drop_21000M.length_250M.champsimtrace.xz
Heartbeat CPU 3 instructions: 750000000 cycles: 1032439926 heartbeat IPC: 0.731037 cumulative IPC: 0.683715 (Simulation time: 4 hr 11 min 13 sec) 
Heartbeat CPU 2 instructions: 450000001 cycles: 1035295602 heartbeat IPC: 0.491321 cumulative IPC: 0.389511 (Simulation time: 4 hr 12 min 13 sec) 
Heartbeat CPU 0 instructions: 1170000001 cycles: 1037816207 heartbeat IPC: 1.15049 cumulative IPC: 1.0968 (Simulation time: 4 hr 13 min 0 sec) 
Heartbeat CPU 3 instructions: 760000003 cycles: 1038594500 heartbeat IPC: 1.62481 cumulative IPC: 0.689383 (Simulation time: 4 hr 13 min 16 sec) 
Heartbeat CPU 1 instructions: 220000000 cycles: 1044026961 heartbeat IPC: 0.242229 cumulative IPC: 0.161892 (Simulation time: 4 hr 15 min 0 sec) 
Heartbeat CPU 3 instructions: 770000000 cycles: 1045682360 heartbeat IPC: 1.41086 cumulative IPC: 0.694352 (Simulation time: 4 hr 15 min 31 sec) 
Heartbeat CPU 0 instructions: 1180000001 cycles: 1046651002 heartbeat IPC: 1.13189 cumulative IPC: 1.0971 (Simulation time: 4 hr 15 min 49 sec) 
Heartbeat CPU 3 instructions: 780000000 cycles: 1053924331 heartbeat IPC: 1.2133 cumulative IPC: 0.698476 (Simulation time: 4 hr 17 min 52 sec) 
Heartbeat CPU 0 instructions: 1190000001 cycles: 1055475241 heartbeat IPC: 1.13324 cumulative IPC: 1.09741 (Simulation time: 4 hr 18 min 18 sec) 
Heartbeat CPU 3 instructions: 790000003 cycles: 1062306534 heartbeat IPC: 1.193 cumulative IPC: 0.70244 (Simulation time: 4 hr 20 min 11 sec) 
Heartbeat CPU 2 instructions: 460000002 cycles: 1063579819 heartbeat IPC: 0.353554 cumulative IPC: 0.388539 (Simulation time: 4 hr 20 min 33 sec) 
Heartbeat CPU 0 instructions: 1200000001 cycles: 1064282539 heartbeat IPC: 1.13542 cumulative IPC: 1.09773 (Simulation time: 4 hr 20 min 46 sec) 
Heartbeat CPU 3 instructions: 800000002 cycles: 1070700034 heartbeat IPC: 1.1914 cumulative IPC: 0.706334 (Simulation time: 4 hr 22 min 39 sec) 
Heartbeat CPU 0 instructions: 1210000000 cycles: 1073069654 heartbeat IPC: 1.13803 cumulative IPC: 1.09807 (Simulation time: 4 hr 23 min 21 sec) 
Heartbeat CPU 3 instructions: 810000000 cycles: 1079067612 heartbeat IPC: 1.19509 cumulative IPC: 0.710183 (Simulation time: 4 hr 24 min 56 sec) 
Heartbeat CPU 0 instructions: 1220000000 cycles: 1081936416 heartbeat IPC: 1.12781 cumulative IPC: 1.09831 (Simulation time: 4 hr 25 min 40 sec) 
Heartbeat CPU 1 instructions: 230000001 cycles: 1082364882 heartbeat IPC: 0.260838 cumulative IPC: 0.165451 (Simulation time: 4 hr 25 min 48 sec) 
Heartbeat CPU 2 instructions: 470000001 cycles: 1083055456 heartbeat IPC: 0.513462 cumulative IPC: 0.390821 (Simulation time: 4 hr 25 min 57 sec) 
Heartbeat CPU 3 instructions: 820000001 cycles: 1087439178 heartbeat IPC: 1.19452 cumulative IPC: 0.71397 (Simulation time: 4 hr 27 min 1 sec) 
Heartbeat CPU 0 instructions: 1230000003 cycles: 1090747374 heartbeat IPC: 1.13495 cumulative IPC: 1.09861 (Simulation time: 4 hr 27 min 53 sec) 
Heartbeat CPU 3 instructions: 830000002 cycles: 1095853881 heartbeat IPC: 1.1884 cumulative IPC: 0.717669 (Simulation time: 4 hr 29 min 6 sec) 
Heartbeat CPU 0 instructions: 1240000001 cycles: 1099669657 heartbeat IPC: 1.12079 cumulative IPC: 1.0988 (Simulation time: 4 hr 29 min 58 sec) 
Heartbeat CPU 3 instructions: 840000000 cycles: 1104310817 heartbeat IPC: 1.18246 cumulative IPC: 0.721283 (Simulation time: 4 hr 31 min 5 sec) 
*** Reached end of trace for Core: 0 Repeating trace: ./traces/ligra/ligra_BFSCC.com-lj.ungraph.gcc_6.3.0_O3.drop_3500M.length_250M.champsimtrace.xz
Heartbeat CPU 0 instructions: 1250000002 cycles: 1108541287 heartbeat IPC: 1.12719 cumulative IPC: 1.09903 (Simulation time: 4 hr 32 min 5 sec) 
Heartbeat CPU 3 instructions: 850000002 cycles: 1112954123 heartbeat IPC: 1.15696 cumulative IPC: 0.724718 (Simulation time: 4 hr 33 min 10 sec) 
Heartbeat CPU 0 instructions: 1260000001 cycles: 1117509760 heartbeat IPC: 1.11502 cumulative IPC: 1.09916 (Simulation time: 4 hr 34 min 11 sec) 
Heartbeat CPU 2 instructions: 480000001 cycles: 1126520027 heartbeat IPC: 0.230072 cumulative IPC: 0.384526 (Simulation time: 4 hr 35 min 58 sec) 
Heartbeat CPU 0 instructions: 1270000001 cycles: 1127066309 heartbeat IPC: 1.0464 cumulative IPC: 1.0987 (Simulation time: 4 hr 36 min 4 sec) 
Heartbeat CPU 3 instructions: 860000001 cycles: 1133749002 heartbeat IPC: 0.480888 cumulative IPC: 0.720179 (Simulation time: 4 hr 37 min 19 sec) 
Heartbeat CPU 0 instructions: 1280000002 cycles: 1136328399 heartbeat IPC: 1.07967 cumulative IPC: 1.09855 (Simulation time: 4 hr 37 min 50 sec) 
Heartbeat CPU 0 instructions: 1290000003 cycles: 1145832672 heartbeat IPC: 1.05216 cumulative IPC: 1.09816 (Simulation time: 4 hr 39 min 48 sec) 
Heartbeat CPU 0 instructions: 1300000000 cycles: 1155292330 heartbeat IPC: 1.05712 cumulative IPC: 1.09781 (Simulation time: 4 hr 41 min 45 sec) 
Heartbeat CPU 1 instructions: 240000002 cycles: 1156743669 heartbeat IPC: 0.134447 cumulative IPC: 0.163428 (Simulation time: 4 hr 42 min 0 sec) 
Heartbeat CPU 3 instructions: 870000000 cycles: 1158225664 heartbeat IPC: 0.408552 cumulative IPC: 0.713497 (Simulation time: 4 hr 42 min 16 sec) 
Heartbeat CPU 0 instructions: 1310000001 cycles: 1164789149 heartbeat IPC: 1.05298 cumulative IPC: 1.09744 (Simulation time: 4 hr 43 min 37 sec) 
Heartbeat CPU 0 instructions: 1320000000 cycles: 1174362107 heartbeat IPC: 1.04461 cumulative IPC: 1.09701 (Simulation time: 4 hr 45 min 29 sec) 
Heartbeat CPU 3 instructions: 880000000 cycles: 1182930652 heartbeat IPC: 0.404777 cumulative IPC: 0.706958 (Simulation time: 4 hr 47 min 13 sec) 
Heartbeat CPU 0 instructions: 1330000003 cycles: 1183700683 heartbeat IPC: 1.07083 cumulative IPC: 1.0968 (Simulation time: 4 hr 47 min 22 sec) 
Heartbeat CPU 0 instructions: 1340000000 cycles: 1193290686 heartbeat IPC: 1.04275 cumulative IPC: 1.09636 (Simulation time: 4 hr 49 min 23 sec) 
Heartbeat CPU 2 instructions: 490000003 cycles: 1201161126 heartbeat IPC: 0.133974 cumulative IPC: 0.368737 (Simulation time: 4 hr 50 min 53 sec) 
Heartbeat CPU 0 instructions: 1350000001 cycles: 1202817347 heartbeat IPC: 1.04969 cumulative IPC: 1.09598 (Simulation time: 4 hr 51 min 11 sec) 
Heartbeat CPU 3 instructions: 890000002 cycles: 1207530191 heartbeat IPC: 0.406512 cumulative IPC: 0.700751 (Simulation time: 4 hr 52 min 7 sec) 
Heartbeat CPU 0 instructions: 1360000003 cycles: 1212187680 heartbeat IPC: 1.0672 cumulative IPC: 1.09576 (Simulation time: 4 hr 53 min 2 sec) 
Heartbeat CPU 0 instructions: 1370000001 cycles: 1221844539 heartbeat IPC: 1.03553 cumulative IPC: 1.09527 (Simulation time: 4 hr 54 min 45 sec) 
Heartbeat CPU 0 instructions: 1380000000 cycles: 1231568920 heartbeat IPC: 1.02834 cumulative IPC: 1.09474 (Simulation time: 4 hr 56 min 42 sec) 
Heartbeat CPU 3 instructions: 900000000 cycles: 1232350800 heartbeat IPC: 0.402891 cumulative IPC: 0.69467 (Simulation time: 4 hr 56 min 51 sec) 
Heartbeat CPU 0 instructions: 1390000000 cycles: 1241237324 heartbeat IPC: 1.0343 cumulative IPC: 1.09426 (Simulation time: 4 hr 58 min 32 sec) 
Heartbeat CPU 0 instructions: 1400000000 cycles: 1251049689 heartbeat IPC: 1.01912 cumulative IPC: 1.09366 (Simulation time: 5 hr 0 min 24 sec) 
Heartbeat CPU 3 instructions: 910000001 cycles: 1257419663 heartbeat IPC: 0.398901 cumulative IPC: 0.688694 (Simulation time: 5 hr 1 min 37 sec) 
Heartbeat CPU 0 instructions: 1410000001 cycles: 1260664186 heartbeat IPC: 1.0401 cumulative IPC: 1.09325 (Simulation time: 5 hr 2 min 16 sec) 
Heartbeat CPU 1 instructions: 250000000 cycles: 1261586323 heartbeat IPC: 0.095381 cumulative IPC: 0.157698 (Simulation time: 5 hr 2 min 27 sec) 
Heartbeat CPU 0 instructions: 1420000002 cycles: 1270116012 heartbeat IPC: 1.058 cumulative IPC: 1.09298 (Simulation time: 5 hr 4 min 12 sec) 
Heartbeat CPU 0 instructions: 1430000000 cycles: 1279650932 heartbeat IPC: 1.04878 cumulative IPC: 1.09265 (Simulation time: 5 hr 6 min 10 sec) 
*** Reached end of trace for Core: 2 Repeating trace: ./traces/ligra/ligra_PageRank.com-lj.ungraph.gcc_6.3.0_O3.drop_51000M.length_250M.champsimtrace.xz
Heartbeat CPU 2 instructions: 500000001 cycles: 1281199689 heartbeat IPC: 0.12494 cumulative IPC: 0.353306 (Simulation time: 5 hr 6 min 27 sec) 
Heartbeat CPU 3 instructions: 920000001 cycles: 1282811476 heartbeat IPC: 0.393828 cumulative IPC: 0.682781 (Simulation time: 5 hr 6 min 47 sec) 
Heartbeat CPU 0 instructions: 1440000000 cycles: 1289525343 heartbeat IPC: 1.01272 cumulative IPC: 1.09203 (Simulation time: 5 hr 7 min 59 sec) 
Heartbeat CPU 0 instructions: 1450000002 cycles: 1298783736 heartbeat IPC: 1.0801 cumulative IPC: 1.09194 (Simulation time: 5 hr 9 min 44 sec) 
Finished CPU 1 instructions: 200000000 cycles: 1282664312 cumulative IPC: 0.155925 (Simulation time: 5 hr 9 min 50 sec) 

ChampSim completed all CPUs

Total Simulation Statistics (not including warmup)

CPU 0 cumulative IPC: 1.09195 instructions: 1400607770 cycles: 1282664311
ITLB TOTAL     ACCESS:  232476533  HIT:  232476533  MISS:          0  HIT %:        100  MISS %:          0   MPKI: 0
ITLB LOAD      ACCESS:          0  HIT:          0  MISS:          0  HIT %:       -nan  MISS %:       -nan   MPKI: 0
ITLB RFO       ACCESS:          0  HIT:          0  MISS:          0  HIT %:       -nan  MISS %:       -nan   MPKI: 0
ITLB PREFETCH  ACCESS:          0  HIT:          0  MISS:          0  HIT %:       -nan  MISS %:       -nan   MPKI: 0
ITLB WRITEBACK ACCESS:          0  HIT:          0  MISS:          0  HIT %:       -nan  MISS %:       -nan   MPKI: 0
DTLB TOTAL     ACCESS:  236363827  HIT:  236285534  MISS:      78293  HIT %:    99.9669  MISS %:  0.0331239   MPKI: 0.0558993
DTLB LOAD      ACCESS:          0  HIT:          0  MISS:          0  HIT %:       -nan  MISS %:       -nan   MPKI: 0
DTLB RFO       ACCESS:          0  HIT:          0  MISS:          0  HIT %:       -nan  MISS %:       -nan   MPKI: 0
DTLB PREFETCH  ACCESS:          0  HIT:          0  MISS:          0  HIT %:       -nan  MISS %:       -nan   MPKI: 0
DTLB WRITEBACK ACCESS:          0  HIT:          0  MISS:          0  HIT %:       -nan  MISS %:       -nan   MPKI: 0
STLB TOTAL     ACCESS:    2498342  HIT:    2420049  MISS:      78293  HIT %:    96.8662  MISS %:     3.1338   MPKI: 0.0558993
STLB LOAD      ACCESS:          0  HIT:          0  MISS:          0  HIT %:       -nan  MISS %:       -nan   MPKI: 0
STLB RFO       ACCESS:          0  HIT:          0  MISS:          0  HIT %:       -nan  MISS %:       -nan   MPKI: 0
STLB PREFETCH  ACCESS:          0  HIT:          0  MISS:          0  HIT %:       -nan  MISS %:       -nan   MPKI: 0
STLB WRITEBACK ACCESS:          0  HIT:          0  MISS:          0  HIT %:       -nan  MISS %:       -nan   MPKI: 0
L1D TOTAL     ACCESS:  132949494  HIT:  127939665  MISS:    5009829  HIT %:    96.2318  MISS %:    3.76822   MPKI: 3.5769
L1D LOAD      ACCESS:   85491823  HIT:   85264443  MISS:     227380  HIT %:     99.734  MISS %:   0.265967   MPKI: 0.162344
L1D RFO       ACCESS:   45180131  HIT:   42675222  MISS:    2504909  HIT %:    94.4557  MISS %:    5.54427   MPKI: 1.78844
L1D PREFETCH  ACCESS:    2277540  HIT:          0  MISS:    2277540  HIT %:          0  MISS %:        100   MPKI: 1.62611
L1D WRITEBACK ACCESS:          0  HIT:          0  MISS:          0  HIT %:       -nan  MISS %:       -nan   MPKI: 0
L1I TOTAL     ACCESS:  232476533  HIT:  232476533  MISS:          0  HIT %:        100  MISS %:          0   MPKI: 0
L1I LOAD      ACCESS:  232476533  HIT:  232476533  MISS:          0  HIT %:        100  MISS %:          0   MPKI: 0
L1I RFO       ACCESS:          0  HIT:          0  MISS:          0  HIT %:       -nan  MISS %:       -nan   MPKI: 0
L1I PREFETCH  ACCESS:          0  HIT:          0  MISS:          0  HIT %:       -nan  MISS %:       -nan   MPKI: 0
L1I WRITEBACK ACCESS:          0  HIT:          0  MISS:          0  HIT %:       -nan  MISS %:       -nan   MPKI: 0
L2C TOTAL     ACCESS:    7593031  HIT:    2313637  MISS:    5279394  HIT %:    30.4705  MISS %:    69.5295   MPKI: 3.76936
L2C LOAD      ACCESS:      39149  HIT:          0  MISS:      39149  HIT %:          0  MISS %:        100   MPKI: 0.0279514
L2C RFO       ACCESS:    2504909  HIT:          0  MISS:    2504909  HIT %:          0  MISS %:        100   MPKI: 1.78844
L2C PREFETCH  ACCESS:    2465771  HIT:          0  MISS:    2465771  HIT %:          0  MISS %:        100   MPKI: 1.7605
L2C WRITEBACK ACCESS:    2504909  HIT:    2245249  MISS:     259660  HIT %:     89.634  MISS %:     10.366   MPKI: 0.185391
PSCL5 TOTAL     ACCESS:      78293  HIT:      78293  MISS:          0  HIT %:        100  MISS %:          0   MPKI: 0
PSCL5 LOAD      ACCESS:          0  HIT:          0  MISS:          0  HIT %:       -nan  MISS %:       -nan   MPKI: 0
PSCL5 RFO       ACCESS:          0  HIT:          0  MISS:          0  HIT %:       -nan  MISS %:       -nan   MPKI: 0
PSCL5 PREFETCH  ACCESS:          0  HIT:          0  MISS:          0  HIT %:       -nan  MISS %:       -nan   MPKI: 0
PSCL5 WRITEBACK ACCESS:          0  HIT:          0  MISS:          0  HIT %:       -nan  MISS %:       -nan   MPKI: 0
PSCL4 TOTAL     ACCESS:      78293  HIT:      78293  MISS:          0  HIT %:        100  MISS %:          0   MPKI: 0
PSCL4 LOAD      ACCESS:          0  HIT:          0  MISS:          0  HIT %:       -nan  MISS %:       -nan   MPKI: 0
PSCL4 RFO       ACCESS:          0  HIT:          0  MISS:          0  HIT %:       -nan  MISS %:       -nan   MPKI: 0
PSCL4 PREFETCH  ACCESS:          0  HIT:          0  MISS:          0  HIT %:       -nan  MISS %:       -nan   MPKI: 0
PSCL4 WRITEBACK ACCESS:          0  HIT:          0  MISS:          0  HIT %:       -nan  MISS %:       -nan   MPKI: 0
PSCL3 TOTAL     ACCESS:      78293  HIT:      78293  MISS:          0  HIT %:        100  MISS %:          0   MPKI: 0
PSCL3 LOAD      ACCESS:          0  HIT:          0  MISS:          0  HIT %:       -nan  MISS %:       -nan   MPKI: 0
PSCL3 RFO       ACCESS:          0  HIT:          0  MISS:          0  HIT %:       -nan  MISS %:       -nan   MPKI: 0
PSCL3 PREFETCH  ACCESS:          0  HIT:          0  MISS:          0  HIT %:       -nan  MISS %:       -nan   MPKI: 0
PSCL3 WRITEBACK ACCESS:          0  HIT:          0  MISS:          0  HIT %:       -nan  MISS %:       -nan   MPKI: 0
PSCL2 TOTAL     ACCESS:      78293  HIT:      78271  MISS:         22  HIT %:    99.9719  MISS %:  0.0280996   MPKI: 1.57075e-05
PSCL2 LOAD      ACCESS:          0  HIT:          0  MISS:          0  HIT %:       -nan  MISS %:       -nan   MPKI: 0
PSCL2 RFO       ACCESS:          0  HIT:          0  MISS:          0  HIT %:       -nan  MISS %:       -nan   MPKI: 0
PSCL2 PREFETCH  ACCESS:          0  HIT:          0  MISS:          0  HIT %:       -nan  MISS %:       -nan   MPKI: 0
PSCL2 WRITEBACK ACCESS:          0  HIT:          0  MISS:          0  HIT %:       -nan  MISS %:       -nan   MPKI: 0
=== CPU 0 L1D Prefetcher Statistics ===
[MLOP] History of tracked zone:
IIIIIIIIIIIIIIIIIIIIIIIIIIIIIIIIIIIIIIIIIIIIIIIIIIIIIIIIIIIIIIII
A11IIIIIIIIIIIIIIIIIIIIIIIIIIIIIIIIIIIIIIIIIIIIIIIIIIIIIIIIIIIII
AA11IIIIIIIIIIIIIIIIIIIIIIIIIIIIIIIIIIIIIIIIIIIIIIIIIIIIIIIIIIII
AAA11IIIIIIIIIIIIIIIIIIIIIIIIIIIIIIIIIIIIIIIIIIIIIIIIIIIIIIIIIII
AAAA11IIIIIIIIIIIIIIIIIIIIIIIIIIIIIIIIIIIIIIIIIIIIIIIIIIIIIIIIII
AAAAA11IIIIIIIIIIIIIIIIIIIIIIIIIIIIIIIIIIIIIIIIIIIIIIIIIIIIIIIII
AAAAAA11IIIIIIIIIIIIIIIIIIIIIIIIIIIIIIIIIIIIIIIIIIIIIIIIIIIIIIII
AAAAAAA11IIIIIIIIIIIIIIIIIIIIIIIIIIIIIIIIIIIIIIIIIIIIIIIIIIIIIII
AAAAAAAA11IIIIIIIIIIIIIIIIIIIIIIIIIIIIIIIIIIIIIIIIIIIIIIIIIIIIII
AAAAAAAAA11IIIIIIIIIIIIIIIIIIIIIIIIIIIIIIIIIIIIIIIIIIIIIIIIIIIII
AAAAAAAAAA11IIIIIIIIIIIIIIIIIIIIIIIIIIIIIIIIIIIIIIIIIIIIIIIIIIII
AAAAAAAAAAA11IIIIIIIIIIIIIIIIIIIIIIIIIIIIIIIIIIIIIIIIIIIIIIIIIII
AAAAAAAAAAAA11IIIIIIIIIIIIIIIIIIIIIIIIIIIIIIIIIIIIIIIIIIIIIIIIII
AAAAAAAAAAAAA11IIIIIIIIIIIIIIIIIIIIIIIIIIIIIIIIIIIIIIIIIIIIIIIII
AAAAAAAAAAAAAA11IIIIIIIIIIIIIIIIIIIIIIIIIIIIIIIIIIIIIIIIIIIIIIII
AAAAAAAAAAAAAAA11IIIIIIIIIIIIIIIIIIIIIIIIIIIIIIIIIIIIIIIIIIIIIII
AAAAAAAAAAAAAAAA11IIIIIIIIIIIIIIIIIIIIIIIIIIIIIIIIIIIIIIIIIIIIII
AAAAAAAAAAAAAAAAA11IIIIIIIIIIIIIIIIIIIIIIIIIIIIIIIIIIIIIIIIIIIII
AAAAAAAAAAAAAAAAAA11IIIIIIIIIIIIIIIIIIIIIIIIIIIIIIIIIIIIIIIIIIII
AAAAAAAAAAAAAAAAAAA11IIIIIIIIIIIIIIIIIIIIIIIIIIIIIIIIIIIIIIIIIII
AAAAAAAAAAAAAAAAAAAA11IIIIIIIIIIIIIIIIIIIIIIIIIIIIIIIIIIIIIIIIII
AAAAAAAAAAAAAAAAAAAAA11IIIIIIIIIIIIIIIIIIIIIIIIIIIIIIIIIIIIIIIII
AAAAAAAAAAAAAAAAAAAAAA11IIIIIIIIIIIIIIIIIIIIIIIIIIIIIIIIIIIIIIII
AAAAAAAAAAAAAAAAAAAAAAA11IIIIIIIIIIIIIIIIIIIIIIIIIIIIIIIIIIIIIII
AAAAAAAAAAAAAAAAAAAAAAAA11IIIIIIIIIIIIIIIIIIIIIIIIIIIIIIIIIIIIII
AAAAAAAAAAAAAAAAAAAAAAAAA11IIIIIIIIIIIIIIIIIIIIIIIIIIIIIIIIIIIII
AAAAAAAAAAAAAAAAAAAAAAAAAA11IIIIIIIIIIIIIIIIIIIIIIIIIIIIIIIIIIII
AAAAAAAAAAAAAAAAAAAAAAAAAAA11IIIIIIIIIIIIIIIIIIIIIIIIIIIIIIIIIII
AAAAAAAAAAAAAAAAAAAAAAAAAAAA11IIIIIIIIIIIIIIIIIIIIIIIIIIIIIIIIII
AAAAAAAAAAAAAAAAAAAAAAAAAAAAA11IIIIIIIIIIIIIIIIIIIIIIIIIIIIIIIII
AAAAAAAAAAAAAAAAAAAAAAAAAAAAAA11IIIIIIIIIIIIIIIIIIIIIIIIIIIIIIII
AAAAAAAAAAAAAAAAAAAAAAAAAAAAAAA11IIIIIIIIIIIIIIIIIIIIIIIIIIIIIII
AAAAAAAAAAAAAAAAAAAAAAAAAAAAAAAA11IIIIIIIIIIIIIIIIIIIIIIIIIIIIII
AAAAAAAAAAAAAAAAAAAAAAAAAAAAAAAAA11IIIIIIIIIIIIIIIIIIIIIIIIIIIII
AAAAAAAAAAAAAAAAAAAAAAAAAAAAAAAAAA11IIIIIIIIIIIIIIIIIIIIIIIIIIII
AAAAAAAAAAAAAAAAAAAAAAAAAAAAAAAAAAA11IIIIIIIIIIIIIIIIIIIIIIIIIII
AAAAAAAAAAAAAAAAAAAAAAAAAAAAAAAAAAAA11IIIIIIIIIIIIIIIIIIIIIIIIII
AAAAAAAAAAAAAAAAAAAAAAAAAAAAAAAAAAAAA11IIIIIIIIIIIIIIIIIIIIIIIII
AAAAAAAAAAAAAAAAAAAAAAAAAAAAAAAAAAAAAA11IIIIIIIIIIIIIIIIIIIIIIII
AAAAAAAAAAAAAAAAAAAAAAAAAAAAAAAAAAAAAAA11IIIIIIIIIIIIIIIIIIIIIII
AAAAAAAAAAAAAAAAAAAAAAAAAAAAAAAAAAAAAAAA11IIIIIIIIIIIIIIIIIIIIII
AAAAAAAAAAAAAAAAAAAAAAAAAAAAAAAAAAAAAAAAA11IIIIIIIIIIIIIIIIIIIII
AAAAAAAAAAAAAAAAAAAAAAAAAAAAAAAAAAAAAAAAAA11IIIIIIIIIIIIIIIIIIII
AAAAAAAAAAAAAAAAAAAAAAAAAAAAAAAAAAAAAAAAAAA11IIIIIIIIIIIIIIIIIII
AAAAAAAAAAAAAAAAAAAAAAAAAAAAAAAAAAAAAAAAAAAA11IIIIIIIIIIIIIIIIII
AAAAAAAAAAAAAAAAAAAAAAAAAAAAAAAAAAAAAAAAAAAAA11IIIIIIIIIIIIIIIII
AAAAAAAAAAAAAAAAAAAAAAAAAAAAAAAAAAAAAAAAAAAAAA11IIIIIIIIIIIIIIII
AAAAAAAAAAAAAAAAAAAAAAAAAAAAAAAAAAAAAAAAAAAAAAA11IIIIIIIIIIIIIII
AAAAAAAAAAAAAAAAAAAAAAAAAAAAAAAAAAAAAAAAAAAAAAAA11IIIIIIIIIIIIII
AAAAAAAAAAAAAAAAAAAAAAAAAAAAAAAAAAAAAAAAAAAAAAAAA11IIIIIIIIIIIII
AAAAAAAAAAAAAAAAAAAAAAAAAAAAAAAAAAAAAAAAAAAAAAAAAA11IIIIIIIIIIII
AAAAAAAAAAAAAAAAAAAAAAAAAAAAAAAAAAAAAAAAAAAAAAAAAAA11IIIIIIIIIII
AAAAAAAAAAAAAAAAAAAAAAAAAAAAAAAAAAAAAAAAAAAAAAAAAAAA11IIIIIIIIII
AAAAAAAAAAAAAAAAAAAAAAAAAAAAAAAAAAAAAAAAAAAAAAAAAAAAA11IIIIIIIII
AAAAAAAAAAAAAAAAAAAAAAAAAAAAAAAAAAAAAAAAAAAAAAAAAAAAAA11IIIIIIII
AAAAAAAAAAAAAAAAAAAAAAAAAAAAAAAAAAAAAAAAAAAAAAAAAAAAAAA11IIIIIII
AAAAAAAAAAAAAAAAAAAAAAAAAAAAAAAAAAAAAAAAAAAAAAAAAAAAAAAA11IIIIII
AAAAAAAAAAAAAAAAAAAAAAAAAAAAAAAAAAAAAAAAAAAAAAAAAAAAAAAAA11IIIII
AAAAAAAAAAAAAAAAAAAAAAAAAAAAAAAAAAAAAAAAAAAAAAAAAAAAAAAAAA11IIII
AAAAAAAAAAAAAAAAAAAAAAAAAAAAAAAAAAAAAAAAAAAAAAAAAAAAAAAAAAA11III
AAAAAAAAAAAAAAAAAAAAAAAAAAAAAAAAAAAAAAAAAAAAAAAAAAAAAAAAAAAA11II
AAAAAAAAAAAAAAAAAAAAAAAAAAAAAAAAAAAAAAAAAAAAAAAAAAAAAAAAAAAAA11I
AAAAAAAAAAAAAAAAAAAAAAAAAAAAAAAAAAAAAAAAAAAAAAAAAAAAAAAAAAAAAA11
AAAAAAAAAAAAAAAAAAAAAAAAAAAAAAAAAAAAAAAAAAAAAAAAAAAAAAAAAAAAAAA1
AAAAAAAAAAAAAAAAAAAAAAAAAAAAAAAAAAAAAAAAAAAAAAAAAAAAAAAAAAAAAAAA
A11IIIIIIIIIIIIIIIIIIIIIIIIIIIIIIIIIIIIIIIIIIIIIIIIIIIIIIIIIIIII
AA11IIIIIIIIIIIIIIIIIIIIIIIIIIIIIIIIIIIIIIIIIIIIIIIIIIIIIIIIIIII
AAA11IIIIIIIIIIIIIIIIIIIIIIIIIIIIIIIIIIIIIIIIIIIIIIIIIIIIIIIIIII
AAAA11IIIIIIIIIIIIIIIIIIIIIIIIIIIIIIIIIIIIIIIIIIIIIIIIIIIIIIIIII
AAAAA11IIIIIIIIIIIIIIIIIIIIIIIIIIIIIIIIIIIIIIIIIIIIIIIIIIIIIIIII
AAAAAA11IIIIIIIIIIIIIIIIIIIIIIIIIIIIIIIIIIIIIIIIIIIIIIIIIIIIIIII
AAAAAAA11IIIIIIIIIIIIIIIIIIIIIIIIIIIIIIIIIIIIIIIIIIIIIIIIIIIIIII
AAAAAAAA11IIIIIIIIIIIIIIIIIIIIIIIIIIIIIIIIIIIIIIIIIIIIIIIIIIIIII
AAAAAAAAA11IIIIIIIIIIIIIIIIIIIIIIIIIIIIIIIIIIIIIIIIIIIIIIIIIIIII
AAAAAAAAAA11IIIIIIIIIIIIIIIIIIIIIIIIIIIIIIIIIIIIIIIIIIIIIIIIIIII
AAAAAAAAAAA11IIIIIIIIIIIIIIIIIIIIIIIIIIIIIIIIIIIIIIIIIIIIIIIIIII
AAAAAAAAAAAA11IIIIIIIIIIIIIIIIIIIIIIIIIIIIIIIIIIIIIIIIIIIIIIIIII
AAAAAAAAAAAAA11IIIIIIIIIIIIIIIIIIIIIIIIIIIIIIIIIIIIIIIIIIIIIIIII
AAAAAAAAAAAAAA11IIIIIIIIIIIIIIIIIIIIIIIIIIIIIIIIIIIIIIIIIIIIIIII
AAAAAAAAAAAAAAA11IIIIIIIIIIIIIIIIIIIIIIIIIIIIIIIIIIIIIIIIIIIIIII
AAAAAAAAAAAAAAAA11IIIIIIIIIIIIIIIIIIIIIIIIIIIIIIIIIIIIIIIIIIIIII
AAAAAAAAAAAAAAAAA11IIIIIIIIIIIIIIIIIIIIIIIIIIIIIIIIIIIIIIIIIIIII
AAAAAAAAAAAAAAAAAA11IIIIIIIIIIIIIIIIIIIIIIIIIIIIIIIIIIIIIIIIIIII
AAAAAAAAAAAAAAAAAAA11IIIIIIIIIIIIIIIIIIIIIIIIIIIIIIIIIIIIIIIIIII
AAAAAAAAAAAAAAAAAAAA11IIIIIIIIIIIIIIIIIIIIIIIIIIIIIIIIIIIIIIIIII
AAAAAAAAAAAAAAAAAAAAA11IIIIIIIIIIIIIIIIIIIIIIIIIIIIIIIIIIIIIIIII
AAAAAAAAAAAAAAAAAAAAAA11IIIIIIIIIIIIIIIIIIIIIIIIIIIIIIIIIIIIIIII
AAAAAAAAAAAAAAAAAAAAAAA11IIIIIIIIIIIIIIIIIIIIIIIIIIIIIIIIIIIIIII
AAAAAAAAAAAAAAAAAAAAAAAA11IIIIIIIIIIIIIIIIIIIIIIIIIIIIIIIIIIIIII
AAAAAAAAAAAAAAAAAAAAAAAAA11IIIIIIIIIIIIIIIIIIIIIIIIIIIIIIIIIIIII
AAAAAAAAAAAAAAAAAAAAAAAAAA11IIIIIIIIIIIIIIIIIIIIIIIIIIIIIIIIIIII
AAAAAAAAAAAAAAAAAAAAAAAAAAA11IIIIIIIIIIIIIIIIIIIIIIIIIIIIIIIIIII
AAAAAAAAAAAAAAAAAAAAAAAAAAAA11IIIIIIIIIIIIIIIIIIIIIIIIIIIIIIIIII
AAAAAAAAAAAAAAAAAAAAAAAAAAAAA11IIIIIIIIIIIIIIIIIIIIIIIIIIIIIIIII
AAAAAAAAAAAAAAAAAAAAAAAAAAAAAA11IIIIIIIIIIIIIIIIIIIIIIIIIIIIIIII
AAAAAAAAAAAAAAAAAAAAAAAAAAAAAAA11IIIIIIIIIIIIIIIIIIIIIIIIIIIIIII
AAAAAAAAAAAAAAAAAAAAAAAAAAAAAAAA11IIIIIIIIIIIIIIIIIIIIIIIIIIIIII
AAAAAAAAAAAAAAAAAAAAAAAAAAAAAAAAA11IIIIIIIIIIIIIIIIIIIIIIIIIIIII
AAAAAAAAAAAAAAAAAAAAAAAAAAAAAAAAAA11IIIIIIIIIIIIIIIIIIIIIIIIIIII
AAAAAAAAAAAAAAAAAAAAAAAAAAAAAAAAAAA11IIIIIIIIIIIIIIIIIIIIIIIIIII
AAAAAAAAAAAAAAAAAAAAAAAAAAAAAAAAAAAA11IIIIIIIIIIIIIIIIIIIIIIIIII
AAAAAAAAAAAAAAAAAAAAAAAAAAAAAAAAAAAAA11IIIIIIIIIIIIIIIIIIIIIIIII
AAAAAAAAAAAAAAAAAAAAAAAAAAAAAAAAAAAAAA11IIIIIIIIIIIIIIIIIIIIIIII
AAAAAAAAAAAAAAAAAAAAAAAAAAAAAAAAAAAAAAA11IIIIIIIIIIIIIIIIIIIIIII
AAAAAAAAAAAAAAAAAAAAAAAAAAAAAAAAAAAAAAAA11IIIIIIIIIIIIIIIIIIIIII
AAAAAAAAAAAAAAAAAAAAAAAAAAAAAAAAAAAAAAAAA11IIIIIIIIIIIIIIIIIIIII
AAAAAAAAAAAAAAAAAAAAAAAAAAAAAAAAAAAAAAAAAA11IIIIIIIIIIIIIIIIIIII
AAAAAAAAAAAAAAAAAAAAAAAAAAAAAAAAAAAAAAAAAAA11IIIIIIIIIIIIIIIIIII
AAAAAAAAAAAAAAAAAAAAAAAAAAAAAAAAAAAAAAAAAAAA11IIIIIIIIIIIIIIIIII
AAAAAAAAAAAAAAAAAAAAAAAAAAAAAAAAAAAAAAAAAAAAA11IIIIIIIIIIIIIIIII
AAAAAAAAAAAAAAAAAAAAAAAAAAAAAAAAAAAAAAAAAAAAAA11IIIIIIIIIIIIIIII
AAAAAAAAAAAAAAAAAAAAAAAAAAAAAAAAAAAAAAAAAAAAAAA11IIIIIIIIIIIIIII
AAAAAAAAAAAAAAAAAAAAAAAAAAAAAAAAAAAAAAAAAAAAAAAA11IIIIIIIIIIIIII
AAAAAAAAAAAAAAAAAAAAAAAAAAAAAAAAAAAAAAAAAAAAAAAAA11IIIIIIIIIIIII
AAAAAAAAAAAAAAAAAAAAAAAAAAAAAAAAAAAAAAAAAAAAAAAAAA11IIIIIIIIIIII
AAAAAAAAAAAAAAAAAAAAAAAAAAAAAAAAAAAAAAAAAAAAAAAAAAA11IIIIIIIIIII
AAAAAAAAAAAAAAAAAAAAAAAAAAAAAAAAAAAAAAAAAAAAAAAAAAAA11IIIIIIIIII
AAAAAAAAAAAAAAAAAAAAAAAAAAAAAAAAAAAAAAAAAAAAAAAAAAAAA11IIIIIIIII
AAAAAAAAAAAAAAAAAAAAAAAAAAAAAAAAAAAAAAAAAAAAAAAAAAAAAA11IIIIIIII
AAAAAAAAAAAAAAAAAAAAAAAAAAAAAAAAAAAAAAAAAAAAAAAAAAAAAAA11IIIIIII
AAAAAAAAAAAAAAAAAAAAAAAAAAAAAAAAAAAAAAAAAAAAAAAAAAAAAAAA11IIIIII
AAAAAAAAAAAAAAAAAAAAAAAAAAAAAAAAAAAAAAAAAAAAAAAAAAAAAAAAA11IIIII
AAAAAAAAAAAAAAAAAAAAAAAAAAAAAAAAAAAAAAAAAAAAAAAAAAAAAAAAAA11IIII
AAAAAAAAAAAAAAAAAAAAAAAAAAAAAAAAAAAAAAAAAAAAAAAAAAAAAAAAAAA11III
AAAAAAAAAAAAAAAAAAAAAAAAAAAAAAAAAAAAAAAAAAAAAAAAAAAAAAAAAAAA11II
AAAAAAAAAAAAAAAAAAAAAAAAAAAAAAAAAAAAAAAAAAAAAAAAAAAAAAAAAAAAA11I
AAAAAAAAAAAAAAAAAAAAAAAAAAAAAAAAAAAAAAAAAAAAAAAAAAAAAAAAAAAAAA11
AAAAAAAAAAAAAAAAAAAAAAAAAAAAAAAAAAAAAAAAAAAAAAAAAAAAAAAAAAAAAAA1
AAAAAAAAAAAAAAAAAAAAAAAAAAAAAAAAAAAAAAAAAAAAAAAAAAAAAAAAAAAAAAAA
A11IIIIIIIIIIIIIIIIIIIIIIIIIIIIIIIIIIIIIIIIIIIIIIIIIIIIIIIIIIIII
AA11IIIIIIIIIIIIIIIIIIIIIIIIIIIIIIIIIIIIIIIIIIIIIIIIIIIIIIIIIIII
AAA11IIIIIIIIIIIIIIIIIIIIIIIIIIIIIIIIIIIIIIIIIIIIIIIIIIIIIIIIIII
AAAA11IIIIIIIIIIIIIIIIIIIIIIIIIIIIIIIIIIIIIIIIIIIIIIIIIIIIIIIIII
AAAAA11IIIIIIIIIIIIIIIIIIIIIIIIIIIIIIIIIIIIIIIIIIIIIIIIIIIIIIIII
AAAAAA11IIIIIIIIIIIIIIIIIIIIIIIIIIIIIIIIIIIIIIIIIIIIIIIIIIIIIIII
AAAAAAA11IIIIIIIIIIIIIIIIIIIIIIIIIIIIIIIIIIIIIIIIIIIIIIIIIIIIIII
AAAAAAAA11IIIIIIIIIIIIIIIIIIIIIIIIIIIIIIIIIIIIIIIIIIIIIIIIIIIIII
AAAAAAAAA11IIIIIIIIIIIIIIIIIIIIIIIIIIIIIIIIIIIIIIIIIIIIIIIIIIIII
AAAAAAAAAA11IIIIIIIIIIIIIIIIIIIIIIIIIIIIIIIIIIIIIIIIIIIIIIIIIIII
AAAAAAAAAAA11IIIIIIIIIIIIIIIIIIIIIIIIIIIIIIIIIIIIIIIIIIIIIIIIIII
AAAAAAAAAAAA11IIIIIIIIIIIIIIIIIIIIIIIIIIIIIIIIIIIIIIIIIIIIIIIIII
AAAAAAAAAAAAA11IIIIIIIIIIIIIIIIIIIIIIIIIIIIIIIIIIIIIIIIIIIIIIIII
AAAAAAAAAAAAAA11IIIIIIIIIIIIIIIIIIIIIIIIIIIIIIIIIIIIIIIIIIIIIIII
AAAAAAAAAAAAAAA11IIIIIIIIIIIIIIIIIIIIIIIIIIIIIIIIIIIIIIIIIIIIIII
AAAAAAAAAAAAAAAA11IIIIIIIIIIIIIIIIIIIIIIIIIIIIIIIIIIIIIIIIIIIIII
AAAAAAAAAAAAAAAAA11IIIIIIIIIIIIIIIIIIIIIIIIIIIIIIIIIIIIIIIIIIIII
AAAAAAAAAAAAAAAAAA11IIIIIIIIIIIIIIIIIIIIIIIIIIIIIIIIIIIIIIIIIIII
AAAAAAAAAAAAAAAAAAA11IIIIIIIIIIIIIIIIIIIIIIIIIIIIIIIIIIIIIIIIIII
AAAAAAAAAAAAAAAAAAAA11IIIIIIIIIIIIIIIIIIIIIIIIIIIIIIIIIIIIIIIIII
AAAAAAAAAAAAAAAAAAAAA11IIIIIIIIIIIIIIIIIIIIIIIIIIIIIIIIIIIIIIIII
AAAAAAAAAAAAAAAAAAAAAA11IIIIIIIIIIIIIIIIIIIIIIIIIIIIIIIIIIIIIIII
AAAAAAAAAAAAAAAAAAAAAAA11IIIIIIIIIIIIIIIIIIIIIIIIIIIIIIIIIIIIIII
AAAAAAAAAAAAAAAAAAAAAAAA11IIIIIIIIIIIIIIIIIIIIIIIIIIIIIIIIIIIIII
AAAAAAAAAAAAAAAAAAAAAAAAA11IIIIIIIIIIIIIIIIIIIIIIIIIIIIIIIIIIIII
AAAAAAAAAAAAAAAAAAAAAAAAAA11IIIIIIIIIIIIIIIIIIIIIIIIIIIIIIIIIIII
AAAAAAAAAAAAAAAAAAAAAAAAAAA11IIIIIIIIIIIIIIIIIIIIIIIIIIIIIIIIIII
AAAAAAAAAAAAAAAAAAAAAAAAAAAA11IIIIIIIIIIIIIIIIIIIIIIIIIIIIIIIIII
AAAAAAAAAAAAAAAAAAAAAAAAAAAAA11IIIIIIIIIIIIIIIIIIIIIIIIIIIIIIIII
AAAAAAAAAAAAAAAAAAAAAAAAAAAAAA11IIIIIIIIIIIIIIIIIIIIIIIIIIIIIIII
AAAAAAAAAAAAAAAAAAAAAAAAAAAAAAA11IIIIIIIIIIIIIIIIIIIIIIIIIIIIIII
AAAAAAAAAAAAAAAAAAAAAAAAAAAAAAAA11IIIIIIIIIIIIIIIIIIIIIIIIIIIIII
AAAAAAAAAAAAAAAAAAAAAAAAAAAAAAAAA11IIIIIIIIIIIIIIIIIIIIIIIIIIIII
AAAAAAAAAAAAAAAAAAAAAAAAAAAAAAAAAA11IIIIIIIIIIIIIIIIIIIIIIIIIIII
AAAAAAAAAAAAAAAAAAAAAAAAAAAAAAAAAAA11IIIIIIIIIIIIIIIIIIIIIIIIIII
AAAAAAAAAAAAAAAAAAAAAAAAAAAAAAAAAAAA11IIIIIIIIIIIIIIIIIIIIIIIIII
AAAAAAAAAAAAAAAAAAAAAAAAAAAAAAAAAAAAA11IIIIIIIIIIIIIIIIIIIIIIIII
AAAAAAAAAAAAAAAAAAAAAAAAAAAAAAAAAAAAAA11IIIIIIIIIIIIIIIIIIIIIIII
AAAAAAAAAAAAAAAAAAAAAAAAAAAAAAAAAAAAAAA11IIIIIIIIIIIIIIIIIIIIIII
AAAAAAAAAAAAAAAAAAAAAAAAAAAAAAAAAAAAAAAA11IIIIIIIIIIIIIIIIIIIIII
AAAAAAAAAAAAAAAAAAAAAAAAAAAAAAAAAAAAAAAAA11IIIIIIIIIIIIIIIIIIIII
AAAAAAAAAAAAAAAAAAAAAAAAAAAAAAAAAAAAAAAAAA11IIIIIIIIIIIIIIIIIIII
AAAAAAAAAAAAAAAAAAAAAAAAAAAAAAAAAAAAAAAAAAA11IIIIIIIIIIIIIIIIIII
AAAAAAAAAAAAAAAAAAAAAAAAAAAAAAAAAAAAAAAAAAAA11IIIIIIIIIIIIIIIIII
AAAAAAAAAAAAAAAAAAAAAAAAAAAAAAAAAAAAAAAAAAAAA11IIIIIIIIIIIIIIIII
AAAAAAAAAAAAAAAAAAAAAAAAAAAAAAAAAAAAAAAAAAAAAA11IIIIIIIIIIIIIIII
AAAAAAAAAAAAAAAAAAAAAAAAAAAAAAAAAAAAAAAAAAAAAAA11IIIIIIIIIIIIIII
AAAAAAAAAAAAAAAAAAAAAAAAAAAAAAAAAAAAAAAAAAAAAAAA11IIIIIIIIIIIIII
AAAAAAAAAAAAAAAAAAAAAAAAAAAAAAAAAAAAAAAAAAAAAAAAA11IIIIIIIIIIIII
AAAAAAAAAAAAAAAAAAAAAAAAAAAAAAAAAAAAAAAAAAAAAAAAAA11IIIIIIIIIIII
AAAAAAAAAAAAAAAAAAAAAAAAAAAAAAAAAAAAAAAAAAAAAAAAAAA11IIIIIIIIIII
AAAAAAAAAAAAAAAAAAAAAAAAAAAAAAAAAAAAAAAAAAAAAAAAAAAA11IIIIIIIIII
AAAAAAAAAAAAAAAAAAAAAAAAAAAAAAAAAAAAAAAAAAAAAAAAAAAAA11IIIIIIIII
AAAAAAAAAAAAAAAAAAAAAAAAAAAAAAAAAAAAAAAAAAAAAAAAAAAAAA11IIIIIIII
AAAAAAAAAAAAAAAAAAAAAAAAAAAAAAAAAAAAAAAAAAAAAAAAAAAAAAA11IIIIIII
AAAAAAAAAAAAAAAAAAAAAAAAAAAAAAAAAAAAAAAAAAAAAAAAAAAAAAAA11IIIIII
AAAAAAAAAAAAAAAAAAAAAAAAAAAAAAAAAAAAAAAAAAAAAAAAAAAAAAAAA11IIIII
AAAAAAAAAAAAAAAAAAAAAAAAAAAAAAAAAAAAAAAAAAAAAAAAAAAAAAAAAA11IIII
AAAAAAAAAAAAAAAAAAAAAAAAAAAAAAAAAAAAAAAAAAAAAAAAAAAAAAAAAAA11III
AAAAAAAAAAAAAAAAAAAAAAAAAAAAAAAAAAAAAAAAAAAAAAAAAAAAAAAAAAAA11II
AAAAAAAAAAAAAAAAAAAAAAAAAAAAAAAAAAAAAAAAAAAAAAAAAAAAAAAAAAAAA11I
AAAAAAAAAAAAAAAAAAAAAAAAAAAAAAAAAAAAAAAAAAAAAAAAAAAAAAAAAAAAAA11
AAAAAAAAAAAAAAAAAAAAAAAAAAAAAAAAAAAAAAAAAAAAAAAAAAAAAAAAAAAAAAA1
AAAAAAAAAAAAAAAAAAAAAAAAAAAAAAAAAAAAAAAAAAAAAAAAAAAAAAAAAAAAAAAA
A11IIIIIIIIIIIIIIIIIIIIIIIIIIIIIIIIIIIIIIIIIIIIIIIIIIIIIIIIIIIII
AA11IIIIIIIIIIIIIIIIIIIIIIIIIIIIIIIIIIIIIIIIIIIIIIIIIIIIIIIIIIII
AAA11IIIIIIIIIIIIIIIIIIIIIIIIIIIIIIIIIIIIIIIIIIIIIIIIIIIIIIIIIII
AAAA11IIIIIIIIIIIIIIIIIIIIIIIIIIIIIIIIIIIIIIIIIIIIIIIIIIIIIIIIII
AAAAA11IIIIIIIIIIIIIIIIIIIIIIIIIIIIIIIIIIIIIIIIIIIIIIIIIIIIIIIII
AAAAAA11IIIIIIIIIIIIIIIIIIIIIIIIIIIIIIIIIIIIIIIIIIIIIIIIIIIIIIII
AAAAAAA11IIIIIIIIIIIIIIIIIIIIIIIIIIIIIIIIIIIIIIIIIIIIIIIIIIIIIII
AAAAAAAA11IIIIIIIIIIIIIIIIIIIIIIIIIIIIIIIIIIIIIIIIIIIIIIIIIIIIII
AAAAAAAAA11IIIIIIIIIIIIIIIIIIIIIIIIIIIIIIIIIIIIIIIIIIIIIIIIIIIII
AAAAAAAAAA11IIIIIIIIIIIIIIIIIIIIIIIIIIIIIIIIIIIIIIIIIIIIIIIIIIII
AAAAAAAAAAA11IIIIIIIIIIIIIIIIIIIIIIIIIIIIIIIIIIIIIIIIIIIIIIIIIII
AAAAAAAAAAAA11IIIIIIIIIIIIIIIIIIIIIIIIIIIIIIIIIIIIIIIIIIIIIIIIII
AAAAAAAAAAAAA11IIIIIIIIIIIIIIIIIIIIIIIIIIIIIIIIIIIIIIIIIIIIIIIII
AAAAAAAAAAAAAA11IIIIIIIIIIIIIIIIIIIIIIIIIIIIIIIIIIIIIIIIIIIIIIII
AAAAAAAAAAAAAAA11IIIIIIIIIIIIIIIIIIIIIIIIIIIIIIIIIIIIIIIIIIIIIII
AAAAAAAAAAAAAAAA11IIIIIIIIIIIIIIIIIIIIIIIIIIIIIIIIIIIIIIIIIIIIII
AAAAAAAAAAAAAAAAA11IIIIIIIIIIIIIIIIIIIIIIIIIIIIIIIIIIIIIIIIIIIII
AAAAAAAAAAAAAAAAAA11IIIIIIIIIIIIIIIIIIIIIIIIIIIIIIIIIIIIIIIIIIII
AAAAAAAAAAAAAAAAAAA11IIIIIIIIIIIIIIIIIIIIIIIIIIIIIIIIIIIIIIIIIII
AAAAAAAAAAAAAAAAAAAA11IIIIIIIIIIIIIIIIIIIIIIIIIIIIIIIIIIIIIIIIII
AAAAAAAAAAAAAAAAAAAAA11IIIIIIIIIIIIIIIIIIIIIIIIIIIIIIIIIIIIIIIII
AAAAAAAAAAAAAAAAAAAAAA11IIIIIIIIIIIIIIIIIIIIIIIIIIIIIIIIIIIIIIII
AAAAAAAAAAAAAAAAAAAAAAA11IIIIIIIIIIIIIIIIIIIIIIIIIIIIIIIIIIIIIII
AAAAAAAAAAAAAAAAAAAAAAAA11IIIIIIIIIIIIIIIIIIIIIIIIIIIIIIIIIIIIII
AAAAAAAAAAAAAAAAAAAAAAAAA11IIIIIIIIIIIIIIIIIIIIIIIIIIIIIIIIIIIII
AAAAAAAAAAAAAAAAAAAAAAAAAA11IIIIIIIIIIIIIIIIIIIIIIIIIIIIIIIIIIII
AAAAAAAAAAAAAAAAAAAAAAAAAAA11IIIIIIIIIIIIIIIIIIIIIIIIIIIIIIIIIII
AAAAAAAAAAAAAAAAAAAAAAAAAAAA11IIIIIIIIIIIIIIIIIIIIIIIIIIIIIIIIII
AAAAAAAAAAAAAAAAAAAAAAAAAAAAA11IIIIIIIIIIIIIIIIIIIIIIIIIIIIIIIII
AAAAAAAAAAAAAAAAAAAAAAAAAAAAAA11IIIIIIIIIIIIIIIIIIIIIIIIIIIIIIII
AAAAAAAAAAAAAAAAAAAAAAAAAAAAAAA11IIIIIIIIIIIIIIIIIIIIIIIIIIIIIII
AAAAAAAAAAAAAAAAAAAAAAAAAAAAAAAA11IIIIIIIIIIIIIIIIIIIIIIIIIIIIII
AAAAAAAAAAAAAAAAAAAAAAAAAAAAAAAAA11IIIIIIIIIIIIIIIIIIIIIIIIIIIII
AAAAAAAAAAAAAAAAAAAAAAAAAAAAAAAAAA11IIIIIIIIIIIIIIIIIIIIIIIIIIII
AAAAAAAAAAAAAAAAAAAAAAAAAAAAAAAAAAA11IIIIIIIIIIIIIIIIIIIIIIIIIII
AAAAAAAAAAAAAAAAAAAAAAAAAAAAAAAAAAAA11IIIIIIIIIIIIIIIIIIIIIIIIII
AAAAAAAAAAAAAAAAAAAAAAAAAAAAAAAAAAAAA11IIIIIIIIIIIIIIIIIIIIIIIII
AAAAAAAAAAAAAAAAAAAAAAAAAAAAAAAAAAAAAA11IIIIIIIIIIIIIIIIIIIIIIII
AAAAAAAAAAAAAAAAAAAAAAAAAAAAAAAAAAAAAAA11IIIIIIIIIIIIIIIIIIIIIII
AAAAAAAAAAAAAAAAAAAAAAAAAAAAAAAAAAAAAAAA11IIIIIIIIIIIIIIIIIIIIII
AAAAAAAAAAAAAAAAAAAAAAAAAAAAAAAAAAAAAAAAA11IIIIIIIIIIIIIIIIIIIII
AAAAAAAAAAAAAAAAAAAAAAAAAAAAAAAAAAAAAAAAAA11IIIIIIIIIIIIIIIIIIII
AAAAAAAAAAAAAAAAAAAAAAAAAAAAAAAAAAAAAAAAAAA11IIIIIIIIIIIIIIIIIII
AAAAAAAAAAAAAAAAAAAAAAAAAAAAAAAAAAAAAAAAAAAA11IIIIIIIIIIIIIIIIII
AAAAAAAAAAAAAAAAAAAAAAAAAAAAAAAAAAAAAAAAAAAAA11IIIIIIIIIIIIIIIII
AAAAAAAAAAAAAAAAAAAAAAAAAAAAAAAAAAAAAAAAAAAAAA11IIIIIIIIIIIIIIII
AAAAAAAAAAAAAAAAAAAAAAAAAAAAAAAAAAAAAAAAAAAAAAA11IIIIIIIIIIIIIII
AAAAAAAAAAAAAAAAAAAAAAAAAAAAAAAAAAAAAAAAAAAAAAAA11IIIIIIIIIIIIII
AAAAAAAAAAAAAAAAAAAAAAAAAAAAAAAAAAAAAAAAAAAAAAAAA11IIIIIIIIIIIII
AAAAAAAAAAAAAAAAAAAAAAAAAAAAAAAAAAAAAAAAAAAAAAAAAA11IIIIIIIIIIII
AAAAAAAAAAAAAAAAAAAAAAAAAAAAAAAAAAAAAAAAAAAAAAAAAAA11IIIIIIIIIII
AAAAAAAAAAAAAAAAAAAAAAAAAAAAAAAAAAAAAAAAAAAAAAAAAAAA11IIIIIIIIII
AAAAAAAAAAAAAAAAAAAAAAAAAAAAAAAAAAAAAAAAAAAAAAAAAAAAA11IIIIIIIII
AAAAAAAAAAAAAAAAAAAAAAAAAAAAAAAAAAAAAAAAAAAAAAAAAAAAAA11IIIIIIII
AAAAAAAAAAAAAAAAAAAAAAAAAAAAAAAAAAAAAAAAAAAAAAAAAAAAAAA11IIIIIII
AAAAAAAAAAAAAAAAAAAAAAAAAAAAAAAAAAAAAAAAAAAAAAAAAAAAAAAA11IIIIII
AAAAAAAAAAAAAAAAAAAAAAAAAAAAAAAAAAAAAAAAAAAAAAAAAAAAAAAAA11IIIII
AAAAAAAAAAAAAAAAAAAAAAAAAAAAAAAAAAAAAAAAAAAAAAAAAAAAAAAAAA11IIII
AAAAAAAAAAAAAAAAAAAAAAAAAAAAAAAAAAAAAAAAAAAAAAAAAAAAAAAAAAA11III
AAAAAAAAAAAAAAAAAAAAAAAAAAAAAAAAAAAAAAAAAAAAAAAAAAAAAAAAAAAA11II
AAAAAAAAAAAAAAAAAAAAAAAAAAAAAAAAAAAAAAAAAAAAAAAAAAAAAAAAAAAAA11I
AAAAAAAAAAAAAAAAAAAAAAAAAAAAAAAAAAAAAAAAAAAAAAAAAAAAAAAAAAAAAA11
AAAAAAAAAAAAAAAAAAAAAAAAAAAAAAAAAAAAAAAAAAAAAAAAAAAAAAAAAAAAAAA1
AAAAAAAAAAAAAAAAAAAAAAAAAAAAAAAAAAAAAAAAAAAAAAAAAAAAAAAAAAAAAAAA
A111IIIIIIIIIIIIIIIIIIIIIIIIIIIIIIIIIIIIIIIIIIIIIIIIIIIIIIIIIIII
AA111IIIIIIIIIIIIIIIIIIIIIIIIIIIIIIIIIIIIIIIIIIIIIIIIIIIIIIIIIII
AAA111IIIIIIIIIIIIIIIIIIIIIIIIIIIIIIIIIIIIIIIIIIIIIIIIIIIIIIIIII
AAAA111IIIIIIIIIIIIIIIIIIIIIIIIIIIIIIIIIIIIIIIIIIIIIIIIIIIIIIIII
AAAAA111IIIIIIIIIIIIIIIIIIIIIIIIIIIIIIIIIIIIIIIIIIIIIIIIIIIIIIII
AAAAAA111IIIIIIIIIIIIIIIIIIIIIIIIIIIIIIIIIIIIIIIIIIIIIIIIIIIIIII
AAAAAAA111IIIIIIIIIIIIIIIIIIIIIIIIIIIIIIIIIIIIIIIIIIIIIIIIIIIIII
AAAAAAAA111IIIIIIIIIIIIIIIIIIIIIIIIIIIIIIIIIIIIIIIIIIIIIIIIIIIII
AAAAAAAAA111IIIIIIIIIIIIIIIIIIIIIIIIIIIIIIIIIIIIIIIIIIIIIIIIIIII
AAAAAAAAAA111IIIIIIIIIIIIIIIIIIIIIIIIIIIIIIIIIIIIIIIIIIIIIIIIIII
AAAAAAAAAAA111IIIIIIIIIIIIIIIIIIIIIIIIIIIIIIIIIIIIIIIIIIIIIIIIII
AAAAAAAAAAAA111IIIIIIIIIIIIIIIIIIIIIIIIIIIIIIIIIIIIIIIIIIIIIIIII
AAAAAAAAAAAAA111IIIIIIIIIIIIIIIIIIIIIIIIIIIIIIIIIIIIIIIIIIIIIIII
AAAAAAAAAAAAAA111IIIIIIIIIIIIIIIIIIIIIIIIIIIIIIIIIIIIIIIIIIIIIII
AAAAAAAAAAAAAAA111IIIIIIIIIIIIIIIIIIIIIIIIIIIIIIIIIIIIIIIIIIIIII
AAAAAAAAAAAAAAAA111IIIIIIIIIIIIIIIIIIIIIIIIIIIIIIIIIIIIIIIIIIIII
AAAAAAAAAAAAAAAAA111IIIIIIIIIIIIIIIIIIIIIIIIIIIIIIIIIIIIIIIIIIII
AAAAAAAAAAAAAAAAAA111IIIIIIIIIIIIIIIIIIIIIIIIIIIIIIIIIIIIIIIIIII
AAAAAAAAAAAAAAAAAAA111IIIIIIIIIIIIIIIIIIIIIIIIIIIIIIIIIIIIIIIIII
AAAAAAAAAAAAAAAAAAAA111IIIIIIIIIIIIIIIIIIIIIIIIIIIIIIIIIIIIIIIII
AAAAAAAAAAAAAAAAAAAAA111IIIIIIIIIIIIIIIIIIIIIIIIIIIIIIIIIIIIIIII
AAAAAAAAAAAAAAAAAAAAAA111IIIIIIIIIIIIIIIIIIIIIIIIIIIIIIIIIIIIIII
AAAAAAAAAAAAAAAAAAAAAAA111IIIIIIIIIIIIIIIIIIIIIIIIIIIIIIIIIIIIII
AAAAAAAAAAAAAAAAAAAAAAAA111IIIIIIIIIIIIIIIIIIIIIIIIIIIIIIIIIIIII
AAAAAAAAAAAAAAAAAAAAAAAAA111IIIIIIIIIIIIIIIIIIIIIIIIIIIIIIIIIIII
AAAAAAAAAAAAAAAAAAAAAAAAAA111IIIIIIIIIIIIIIIIIIIIIIIIIIIIIIIIIII
AAAAAAAAAAAAAAAAAAAAAAAAAAA111IIIIIIIIIIIIIIIIIIIIIIIIIIIIIIIIII
AAAAAAAAAAAAAAAAAAAAAAAAAAAA111IIIIIIIIIIIIIIIIIIIIIIIIIIIIIIIII
AAAAAAAAAAAAAAAAAAAAAAAAAAAAA111IIIIIIIIIIIIIIIIIIIIIIIIIIIIIIII
AAAAAAAAAAAAAAAAAAAAAAAAAAAAAA111IIIIIIIIIIIIIIIIIIIIIIIIIIIIIII
AAAAAAAAAAAAAAAAAAAAAAAAAAAAAAA111IIIIIIIIIIIIIIIIIIIIIIIIIIIIII
AAAAAAAAAAAAAAAAAAAAAAAAAAAAAAAA111IIIIIIIIIIIIIIIIIIIIIIIIIIIII
AAAAAAAAAAAAAAAAAAAAAAAAAAAAAAAAA111IIIIIIIIIIIIIIIIIIIIIIIIIIII
AAAAAAAAAAAAAAAAAAAAAAAAAAAAAAAAAA111IIIIIIIIIIIIIIIIIIIIIIIIIII
AAAAAAAAAAAAAAAAAAAAAAAAAAAAAAAAAAA111IIIIIIIIIIIIIIIIIIIIIIIIII
AAAAAAAAAAAAAAAAAAAAAAAAAAAAAAAAAAAA111IIIIIIIIIIIIIIIIIIIIIIIII
AAAAAAAAAAAAAAAAAAAAAAAAAAAAAAAAAAAAA111IIIIIIIIIIIIIIIIIIIIIIII
AAAAAAAAAAAAAAAAAAAAAAAAAAAAAAAAAAAAAA111IIIIIIIIIIIIIIIIIIIIIII
AAAAAAAAAAAAAAAAAAAAAAAAAAAAAAAAAAAAAAA111IIIIIIIIIIIIIIIIIIIIII
AAAAAAAAAAAAAAAAAAAAAAAAAAAAAAAAAAAAAAAA111IIIIIIIIIIIIIIIIIIIII
AAAAAAAAAAAAAAAAAAAAAAAAAAAAAAAAAAAAAAAAA111IIIIIIIIIIIIIIIIIIII
AAAAAAAAAAAAAAAAAAAAAAAAAAAAAAAAAAAAAAAAAA111IIIIIIIIIIIIIIIIIII
AAAAAAAAAAAAAAAAAAAAAAAAAAAAAAAAAAAAAAAAAAA111IIIIIIIIIIIIIIIIII
AAAAAAAAAAAAAAAAAAAAAAAAAAAAAAAAAAAAAAAAAAAA111IIIIIIIIIIIIIIIII
AAAAAAAAAAAAAAAAAAAAAAAAAAAAAAAAAAAAAAAAAAAAA111IIIIIIIIIIIIIIII
AAAAAAAAAAAAAAAAAAAAAAAAAAAAAAAAAAAAAAAAAAAAAA111IIIIIIIIIIIIIII
AAAAAAAAAAAAAAAAAAAAAAAAAAAAAAAAAAAAAAAAAAAAAAA111IIIIIIIIIIIIII
AAAAAAAAAAAAAAAAAAAAAAAAAAAAAAAAAAAAAAAAAAAAAAAA111IIIIIIIIIIIII
AAAAAAAAAAAAAAAAAAAAAAAAAAAAAAAAAAAAAAAAAAAAAAAAA111IIIIIIIIIIII
AAAAAAAAAAAAAAAAAAAAAAAAAAAAAAAAAAAAAAAAAAAAAAAAAA111IIIIIIIIIII
AAAAAAAAAAAAAAAAAAAAAAAAAAAAAAAAAAAAAAAAAAAAAAAAAAA111IIIIIIIIII
AAAAAAAAAAAAAAAAAAAAAAAAAAAAAAAAAAAAAAAAAAAAAAAAAAAA111IIIIIIIII
AAAAAAAAAAAAAAAAAAAAAAAAAAAAAAAAAAAAAAAAAAAAAAAAAAAAA111IIIIIIII
AAAAAAAAAAAAAAAAAAAAAAAAAAAAAAAAAAAAAAAAAAAAAAAAAAAAAA111IIIIIII
AAAAAAAAAAAAAAAAAAAAAAAAAAAAAAAAAAAAAAAAAAAAAAAAAAAAAAA111IIIIII
AAAAAAAAAAAAAAAAAAAAAAAAAAAAAAAAAAAAAAAAAAAAAAAAAAAAAAAA111IIIII
AAAAAAAAAAAAAAAAAAAAAAAAAAAAAAAAAAAAAAAAAAAAAAAAAAAAAAAAA111IIII
AAAAAAAAAAAAAAAAAAAAAAAAAAAAAAAAAAAAAAAAAAAAAAAAAAAAAAAAAA111III
AAAAAAAAAAAAAAAAAAAAAAAAAAAAAAAAAAAAAAAAAAAAAAAAAAAAAAAAAAA111II
AAAAAAAAAAAAAAAAAAAAAAAAAAAAAAAAAAAAAAAAAAAAAAAAAAAAAAAAAAAA111I
AAAAAAAAAAAAAAAAAAAAAAAAAAAAAAAAAAAAAAAAAAAAAAAAAAAAAAAAAAAAA111
AAAAAAAAAAAAAAAAAAAAAAAAAAAAAAAAAAAAAAAAAAAAAAAAAAAAAAAAAAAAAA11
AAAAAAAAAAAAAAAAAAAAAAAAAAAAAAAAAAAAAAAAAAAAAAAAAAAAAAAAAAAAAAA1
AAAAAAAAAAAAAAAAAAAAAAAAAAAAAAAAAAAAAAAAAAAAAAAAAAAAAAAAAAAAAAAA
A11IIIIIIIIIIIIIIIIIIIIIIIIIIIIIIIIIIIIIIIIIIIIIIIIIIIIIIIIIIIII
AA11IIIIIIIIIIIIIIIIIIIIIIIIIIIIIIIIIIIIIIIIIIIIIIIIIIIIIIIIIIII
AAA11IIIIIIIIIIIIIIIIIIIIIIIIIIIIIIIIIIIIIIIIIIIIIIIIIIIIIIIIIII
AAAA11IIIIIIIIIIIIIIIIIIIIIIIIIIIIIIIIIIIIIIIIIIIIIIIIIIIIIIIIII
AAAAA11IIIIIIIIIIIIIIIIIIIIIIIIIIIIIIIIIIIIIIIIIIIIIIIIIIIIIIIII
AAAAAA11IIIIIIIIIIIIIIIIIIIIIIIIIIIIIIIIIIIIIIIIIIIIIIIIIIIIIIII
AAAAAAA11IIIIIIIIIIIIIIIIIIIIIIIIIIIIIIIIIIIIIIIIIIIIIIIIIIIIIII
AAAAAAAA11IIIIIIIIIIIIIIIIIIIIIIIIIIIIIIIIIIIIIIIIIIIIIIIIIIIIII
AAAAAAAAA11IIIIIIIIIIIIIIIIIIIIIIIIIIIIIIIIIIIIIIIIIIIIIIIIIIIII
AAAAAAAAAA11IIIIIIIIIIIIIIIIIIIIIIIIIIIIIIIIIIIIIIIIIIIIIIIIIIII
AAAAAAAAAAA11IIIIIIIIIIIIIIIIIIIIIIIIIIIIIIIIIIIIIIIIIIIIIIIIIII
AAAAAAAAAAAA11IIIIIIIIIIIIIIIIIIIIIIIIIIIIIIIIIIIIIIIIIIIIIIIIII
AAAAAAAAAAAAA11IIIIIIIIIIIIIIIIIIIIIIIIIIIIIIIIIIIIIIIIIIIIIIIII
AAAAAAAAAAAAAA11IIIIIIIIIIIIIIIIIIIIIIIIIIIIIIIIIIIIIIIIIIIIIIII
AAAAAAAAAAAAAAA11IIIIIIIIIIIIIIIIIIIIIIIIIIIIIIIIIIIIIIIIIIIIIII
AAAAAAAAAAAAAAAA11IIIIIIIIIIIIIIIIIIIIIIIIIIIIIIIIIIIIIIIIIIIIII
AAAAAAAAAAAAAAAAA11IIIIIIIIIIIIIIIIIIIIIIIIIIIIIIIIIIIIIIIIIIIII
AAAAAAAAAAAAAAAAAA11IIIIIIIIIIIIIIIIIIIIIIIIIIIIIIIIIIIIIIIIIIII
AAAAAAAAAAAAAAAAAAA11IIIIIIIIIIIIIIIIIIIIIIIIIIIIIIIIIIIIIIIIIII
AAAAAAAAAAAAAAAAAAAA11IIIIIIIIIIIIIIIIIIIIIIIIIIIIIIIIIIIIIIIIII
AAAAAAAAAAAAAAAAAAAAA11IIIIIIIIIIIIIIIIIIIIIIIIIIIIIIIIIIIIIIIII
AAAAAAAAAAAAAAAAAAAAAA11IIIIIIIIIIIIIIIIIIIIIIIIIIIIIIIIIIIIIIII
AAAAAAAAAAAAAAAAAAAAAAA11IIIIIIIIIIIIIIIIIIIIIIIIIIIIIIIIIIIIIII
AAAAAAAAAAAAAAAAAAAAAAAA11IIIIIIIIIIIIIIIIIIIIIIIIIIIIIIIIIIIIII
AAAAAAAAAAAAAAAAAAAAAAAAA11IIIIIIIIIIIIIIIIIIIIIIIIIIIIIIIIIIIII
AAAAAAAAAAAAAAAAAAAAAAAAAA11IIIIIIIIIIIIIIIIIIIIIIIIIIIIIIIIIIII
AAAAAAAAAAAAAAAAAAAAAAAAAAA11IIIIIIIIIIIIIIIIIIIIIIIIIIIIIIIIIII
AAAAAAAAAAAAAAAAAAAAAAAAAAAA11IIIIIIIIIIIIIIIIIIIIIIIIIIIIIIIIII
AAAAAAAAAAAAAAAAAAAAAAAAAAAAA11IIIIIIIIIIIIIIIIIIIIIIIIIIIIIIIII
AAAAAAAAAAAAAAAAAAAAAAAAAAAAAA11IIIIIIIIIIIIIIIIIIIIIIIIIIIIIIII
AAAAAAAAAAAAAAAAAAAAAAAAAAAAAAA11IIIIIIIIIIIIIIIIIIIIIIIIIIIIIII
AAAAAAAAAAAAAAAAAAAAAAAAAAAAAAAA11IIIIIIIIIIIIIIIIIIIIIIIIIIIIII
AAAAAAAAAAAAAAAAAAAAAAAAAAAAAAAAA11IIIIIIIIIIIIIIIIIIIIIIIIIIIII
AAAAAAAAAAAAAAAAAAAAAAAAAAAAAAAAAA11IIIIIIIIIIIIIIIIIIIIIIIIIIII
AAAAAAAAAAAAAAAAAAAAAAAAAAAAAAAAAAA11IIIIIIIIIIIIIIIIIIIIIIIIIII
AAAAAAAAAAAAAAAAAAAAAAAAAAAAAAAAAAAA11IIIIIIIIIIIIIIIIIIIIIIIIII
AAAAAAAAAAAAAAAAAAAAAAAAAAAAAAAAAAAAA11IIIIIIIIIIIIIIIIIIIIIIIII
AAAAAAAAAAAAAAAAAAAAAAAAAAAAAAAAAAAAAA11IIIIIIIIIIIIIIIIIIIIIIII
AAAAAAAAAAAAAAAAAAAAAAAAAAAAAAAAAAAAAAA11IIIIIIIIIIIIIIIIIIIIIII
AAAAAAAAAAAAAAAAAAAAAAAAAAAAAAAAAAAAAAAA11IIIIIIIIIIIIIIIIIIIIII
AAAAAAAAAAAAAAAAAAAAAAAAAAAAAAAAAAAAAAAAA11IIIIIIIIIIIIIIIIIIIII
AAAAAAAAAAAAAAAAAAAAAAAAAAAAAAAAAAAAAAAAAA11IIIIIIIIIIIIIIIIIIII
AAAAAAAAAAAAAAAAAAAAAAAAAAAAAAAAAAAAAAAAAAA11IIIIIIIIIIIIIIIIIII
AAAAAAAAAAAAAAAAAAAAAAAAAAAAAAAAAAAAAAAAAAAA11IIIIIIIIIIIIIIIIII
AAAAAAAAAAAAAAAAAAAAAAAAAAAAAAAAAAAAAAAAAAAAA11IIIIIIIIIIIIIIIII
AAAAAAAAAAAAAAAAAAAAAAAAAAAAAAAAAAAAAAAAAAAAAA11IIIIIIIIIIIIIIII
AAAAAAAAAAAAAAAAAAAAAAAAAAAAAAAAAAAAAAAAAAAAAAA11IIIIIIIIIIIIIII
AAAAAAAAAAAAAAAAAAAAAAAAAAAAAAAAAAAAAAAAAAAAAAAA11IIIIIIIIIIIIII
AAAAAAAAAAAAAAAAAAAAAAAAAAAAAAAAAAAAAAAAAAAAAAAAA11IIIIIIIIIIIII
AAAAAAAAAAAAAAAAAAAAAAAAAAAAAAAAAAAAAAAAAAAAAAAAAA11IIIIIIIIIIII
AAAAAAAAAAAAAAAAAAAAAAAAAAAAAAAAAAAAAAAAAAAAAAAAAAA11IIIIIIIIIII
AAAAAAAAAAAAAAAAAAAAAAAAAAAAAAAAAAAAAAAAAAAAAAAAAAAA11IIIIIIIIII
AAAAAAAAAAAAAAAAAAAAAAAAAAAAAAAAAAAAAAAAAAAAAAAAAAAAA11IIIIIIIII
AAAAAAAAAAAAAAAAAAAAAAAAAAAAAAAAAAAAAAAAAAAAAAAAAAAAAA11IIIIIIII
AAAAAAAAAAAAAAAAAAAAAAAAAAAAAAAAAAAAAAAAAAAAAAAAAAAAAAA11IIIIIII
AAAAAAAAAAAAAAAAAAAAAAAAAAAAAAAAAAAAAAAAAAAAAAAAAAAAAAAA11IIIIII
AAAAAAAAAAAAAAAAAAAAAAAAAAAAAAAAAAAAAAAAAAAAAAAAAAAAAAAAA11IIIII
AAAAAAAAAAAAAAAAAAAAAAAAAAAAAAAAAAAAAAAAAAAAAAAAAAAAAAAAAA11IIII
AAAAAAAAAAAAAAAAAAAAAAAAAAAAAAAAAAAAAAAAAAAAAAAAAAAAAAAAAAA11III
[...]
AAAAAAAAAAAAAAAAAAAAAAAAAAAAAAAAAAAAAAAAAAAAAAAAAAAAAAAAAAAAA111
AAAAAAAAAAAAAAAAAAAAAAAAAAAAAAAAAAAAAAAAAAAAAAAAAAAAAAAAAAAAAA11
AAAAAAAAAAAAAAAAAAAAAAAAAAAAAAAAAAAAAAAAAAAAAAAAAAAAAAAAAAAAAAA1
AAAAAAAAAAAAAAAAAAAAAAAAAAAAAAAAAAAAAAAAAAAAAAAAAAAAAAAAAAAAAAAA
[MLOP] Prefetch Degree Mean: 0.656573
[MLOP] Prefetch Degree SD: 1.97205
[MLOP] Max Score Left Mean (%): 15.1078
[MLOP] Max Score Left SD (%): 12.5393
[MLOP] Max Score Right Mean (%): 28.8872
[MLOP] Max Score Right SD (%): 14.145
=== CPU 3 L1D Prefetcher Statistics ===
[MLOP] History of tracked zone:
IIIIIIIIIIIIIIIIIIIIIIIIIIIIIIIIIIIIIIIIIIIIIIIIIIIIIIIIIIIIIIII
A111IIIIIIIIIIIIIIIIIIIIIIIIIIIIIIIIIIIIIIIIIIIIIIIIIIIIIIIIIIII
AA111IIIIIIIIIIIIIIIIIIIIIIIIIIIIIIIIIIIIIIIIIIIIIIIIIIIIIIIIIII
AAA111IIIIIIIIIIIIIIIIIIIIIIIIIIIIIIIIIIIIIIIIIIIIIIIIIIIIIIIIII
AAAA111IIIIIIIIIIIIIIIIIIIIIIIIIIIIIIIIIIIIIIIIIIIIIIIIIIIIIIIII
AAAAA111IIIIIIIIIIIIIIIIIIIIIIIIIIIIIIIIIIIIIIIIIIIIIIIIIIIIIIII
AAAAAA111IIIIIIIIIIIIIIIIIIIIIIIIIIIIIIIIIIIIIIIIIIIIIIIIIIIIIII
AAAAAAA111IIIIIIIIIIIIIIIIIIIIIIIIIIIIIIIIIIIIIIIIIIIIIIIIIIIIII
AAAAAAAA111IIIIIIIIIIIIIIIIIIIIIIIIIIIIIIIIIIIIIIIIIIIIIIIIIIIII
AAAAAAAAA111IIIIIIIIIIIIIIIIIIIIIIIIIIIIIIIIIIIIIIIIIIIIIIIIIIII
AAAAAAAAAA111IIIIIIIIIIIIIIIIIIIIIIIIIIIIIIIIIIIIIIIIIIIIIIIIIII
AAAAAAAAAAA111IIIIIIIIIIIIIIIIIIIIIIIIIIIIIIIIIIIIIIIIIIIIIIIIII
AAAAAAAAAAAA111IIIIIIIIIIIIIIIIIIIIIIIIIIIIIIIIIIIIIIIIIIIIIIIII
AAAAAAAAAAAAA111IIIIIIIIIIIIIIIIIIIIIIIIIIIIIIIIIIIIIIIIIIIIIIII
AAAAAAAAAAAAAA111IIIIIIIIIIIIIIIIIIIIIIIIIIIIIIIIIIIIIIIIIIIIIII
AAAAAAAAAAAAAAA111IIIIIIIIIIIIIIIIIIIIIIIIIIIIIIIIIIIIIIIIIIIIII
AAAAAAAAAAAAAAAA111IIIIIIIIIIIIIIIIIIIIIIIIIIIIIIIIIIIIIIIIIIIII
AAAAAAAAAAAAAAAAA111IIIIIIIIIIIIIIIIIIIIIIIIIIIIIIIIIIIIIIIIIIII
AAAAAAAAAAAAAAAAAA111IIIIIIIIIIIIIIIIIIIIIIIIIIIIIIIIIIIIIIIIIII
AAAAAAAAAAAAAAAAAAA111IIIIIIIIIIIIIIIIIIIIIIIIIIIIIIIIIIIIIIIIII
AAAAAAAAAAAAAAAAAAAA111IIIIIIIIIIIIIIIIIIIIIIIIIIIIIIIIIIIIIIIII
AAAAAAAAAAAAAAAAAAAAA111IIIIIIIIIIIIIIIIIIIIIIIIIIIIIIIIIIIIIIII
AAAAAAAAAAAAAAAAAAAAAA111IIIIIIIIIIIIIIIIIIIIIIIIIIIIIIIIIIIIIII
AAAAAAAAAAAAAAAAAAAAAAA111IIIIIIIIIIIIIIIIIIIIIIIIIIIIIIIIIIIIII
AAAAAAAAAAAAAAAAAAAAAAAA111IIIIIIIIIIIIIIIIIIIIIIIIIIIIIIIIIIIII
AAAAAAAAAAAAAAAAAAAAAAAAA111IIIIIIIIIIIIIIIIIIIIIIIIIIIIIIIIIIII
AAAAAAAAAAAAAAAAAAAAAAAAAA111IIIIIIIIIIIIIIIIIIIIIIIIIIIIIIIIIII
AAAAAAAAAAAAAAAAAAAAAAAAAAA111IIIIIIIIIIIIIIIIIIIIIIIIIIIIIIIIII
AAAAAAAAAAAAAAAAAAAAAAAAAAAA111IIIIIIIIIIIIIIIIIIIIIIIIIIIIIIIII
AAAAAAAAAAAAAAAAAAAAAAAAAAAAA111IIIIIIIIIIIIIIIIIIIIIIIIIIIIIIII
AAAAAAAAAAAAAAAAAAAAAAAAAAAAAA111IIIIIIIIIIIIIIIIIIIIIIIIIIIIIII
AAAAAAAAAAAAAAAAAAAAAAAAAAAAAAA111IIIIIIIIIIIIIIIIIIIIIIIIIIIIII
AAAAAAAAAAAAAAAAAAAAAAAAAAAAAAAA111IIIIIIIIIIIIIIIIIIIIIIIIIIIII
AAAAAAAAAAAAAAAAAAAAAAAAAAAAAAAAA111IIIIIIIIIIIIIIIIIIIIIIIIIIII
AAAAAAAAAAAAAAAAAAAAAAAAAAAAAAAAAA111IIIIIIIIIIIIIIIIIIIIIIIIIII
AAAAAAAAAAAAAAAAAAAAAAAAAAAAAAAAAAA111IIIIIIIIIIIIIIIIIIIIIIIIII
AAAAAAAAAAAAAAAAAAAAAAAAAAAAAAAAAAAA111IIIIIIIIIIIIIIIIIIIIIIIII
AAAAAAAAAAAAAAAAAAAAAAAAAAAAAAAAAAAAA111IIIIIIIIIIIIIIIIIIIIIIII
AAAAAAAAAAAAAAAAAAAAAAAAAAAAAAAAAAAAAA111IIIIIIIIIIIIIIIIIIIIIII
AAAAAAAAAAAAAAAAAAAAAAAAAAAAAAAAAAAAAAA111IIIIIIIIIIIIIIIIIIIIII
AAAAAAAAAAAAAAAAAAAAAAAAAAAAAAAAAAAAAAAA111IIIIIIIIIIIIIIIIIIIII
AAAAAAAAAAAAAAAAAAAAAAAAAAAAAAAAAAAAAAAAA111IIIIIIIIIIIIIIIIIIII
AAAAAAAAAAAAAAAAAAAAAAAAAAAAAAAAAAAAAAAAAA111IIIIIIIIIIIIIIIIIII
AAAAAAAAAAAAAAAAAAAAAAAAAAAAAAAAAAAAAAAAAAA111IIIIIIIIIIIIIIIIII
AAAAAAAAAAAAAAAAAAAAAAAAAAAAAAAAAAAAAAAAAAAA111IIIIIIIIIIIIIIIII
AAAAAAAAAAAAAAAAAAAAAAAAAAAAAAAAAAAAAAAAAAAAA111IIIIIIIIIIIIIIII
AAAAAAAAAAAAAAAAAAAAAAAAAAAAAAAAAAAAAAAAAAAAAA111IIIIIIIIIIIIIII
AAAAAAAAAAAAAAAAAAAAAAAAAAAAAAAAAAAAAAAAAAAAAAA111IIIIIIIIIIIIII
AAAAAAAAAAAAAAAAAAAAAAAAAAAAAAAAAAAAAAAAAAAAAAAA111IIIIIIIIIIIII
AAAAAAAAAAAAAAAAAAAAAAAAAAAAAAAAAAAAAAAAAAAAAAAAA111IIIIIIIIIIII
AAAAAAAAAAAAAAAAAAAAAAAAAAAAAAAAAAAAAAAAAAAAAAAAAA111IIIIIIIIIII
AAAAAAAAAAAAAAAAAAAAAAAAAAAAAAAAAAAAAAAAAAAAAAAAAAA111IIIIIIIIII
AAAAAAAAAAAAAAAAAAAAAAAAAAAAAAAAAAAAAAAAAAAAAAAAAAAA111IIIIIIIII
AAAAAAAAAAAAAAAAAAAAAAAAAAAAAAAAAAAAAAAAAAAAAAAAAAAAA111IIIIIIII
AAAAAAAAAAAAAAAAAAAAAAAAAAAAAAAAAAAAAAAAAAAAAAAAAAAAAA111IIIIIII
AAAAAAAAAAAAAAAAAAAAAAAAAAAAAAAAAAAAAAAAAAAAAAAAAAAAAAA111IIIIII
AAAAAAAAAAAAAAAAAAAAAAAAAAAAAAAAAAAAAAAAAAAAAAAAAAAAAAAA111IIIII
AAAAAAAAAAAAAAAAAAAAAAAAAAAAAAAAAAAAAAAAAAAAAAAAAAAAAAAAA111IIII
AAAAAAAAAAAAAAAAAAAAAAAAAAAAAAAAAAAAAAAAAAAAAAAAAAAAAAAAAA111III
AAAAAAAAAAAAAAAAAAAAAAAAAAAAAAAAAAAAAAAAAAAAAAAAAAAAAAAAAAA111II
AAAAAAAAAAAAAAAAAAAAAAAAAAAAAAAAAAAAAAAAAAAAAAAAAAAAAAAAAAAA111I
AAAAAAAAAAAAAAAAAAAAAAAAAAAAAAAAAAAAAAAAAAAAAAAAAAAAAAAAAAAAA111
AAAAAAAAAAAAAAAAAAAAAAAAAAAAAAAAAAAAAAAAAAAAAAAAAAAAAAAAAAAAAA11
AAAAAAAAAAAAAAAAAAAAAAAAAAAAAAAAAAAAAAAAAAAAAAAAAAAAAAAAAAAAAAA1
AAAAAAAAAAAAAAAAAAAAAAAAAAAAAAAAAAAAAAAAAAAAAAAAAAAAAAAAAAAAAAAA
A111I11IIIIIIIIIIIIIIIIIIIIIIIIIIIIIIIIIIIIIIIIIIIIIIIIIIIIIIIII
AA111111IIIIIIIIIIIIIIIIIIIIIIIIIIIIIIIIIIIIIIIIIIIIIIIIIIIIIIII
AAA111111IIIIIIIIIIIIIIIIIIIIIIIIIIIIIIIIIIIIIIIIIIIIIIIIIIIIIII
AAAA111111IIIIIIIIIIIIIIIIIIIIIIIIIIIIIIIIIIIIIIIIIIIIIIIIIIIIII
AAAAA111111IIIIIIIIIIIIIIIIIIIIIIIIIIIIIIIIIIIIIIIIIIIIIIIIIIIII
AAAAAA111111IIIIIIIIIIIIIIIIIIIIIIIIIIIIIIIIIIIIIIIIIIIIIIIIIIII
AAAAAAA111111IIIIIIIIIIIIIIIIIIIIIIIIIIIIIIIIIIIIIIIIIIIIIIIIIII
AAAAAAAA111111IIIIIIIIIIIIIIIIIIIIIIIIIIIIIIIIIIIIIIIIIIIIIIIIII
AAAAAAAAA111111IIIIIIIIIIIIIIIIIIIIIIIIIIIIIIIIIIIIIIIIIIIIIIIII
AAAAAAAAAA111111IIIIIIIIIIIIIIIIIIIIIIIIIIIIIIIIIIIIIIIIIIIIIIII
AAAAAAAAAAA111111IIIIIIIIIIIIIIIIIIIIIIIIIIIIIIIIIIIIIIIIIIIIIII
AAAAAAAAAAAA111111IIIIIIIIIIIIIIIIIIIIIIIIIIIIIIIIIIIIIIIIIIIIII
AAAAAAAAAAAAA111111IIIIIIIIIIIIIIIIIIIIIIIIIIIIIIIIIIIIIIIIIIIII
AAAAAAAAAAAAAA111111IIIIIIIIIIIIIIIIIIIIIIIIIIIIIIIIIIIIIIIIIIII
AAAAAAAAAAAAAAA111111IIIIIIIIIIIIIIIIIIIIIIIIIIIIIIIIIIIIIIIIIII
AAAAAAAAAAAAAAAA111111IIIIIIIIIIIIIIIIIIIIIIIIIIIIIIIIIIIIIIIIII
AAAAAAAAAAAAAAAAA111111IIIIIIIIIIIIIIIIIIIIIIIIIIIIIIIIIIIIIIIII
AAAAAAAAAAAAAAAAAA111111IIIIIIIIIIIIIIIIIIIIIIIIIIIIIIIIIIIIIIII
AAAAAAAAAAAAAAAAAAA111111IIIIIIIIIIIIIIIIIIIIIIIIIIIIIIIIIIIIIII
AAAAAAAAAAAAAAAAAAAA111111IIIIIIIIIIIIIIIIIIIIIIIIIIIIIIIIIIIIII
AAAAAAAAAAAAAAAAAAAAA111111IIIIIIIIIIIIIIIIIIIIIIIIIIIIIIIIIIIII
AAAAAAAAAAAAAAAAAAAAAA111111IIIIIIIIIIIIIIIIIIIIIIIIIIIIIIIIIIII
AAAAAAAAAAAAAAAAAAAAAAA111111IIIIIIIIIIIIIIIIIIIIIIIIIIIIIIIIIII
AAAAAAAAAAAAAAAAAAAAAAAA111111IIIIIIIIIIIIIIIIIIIIIIIIIIIIIIIIII
AAAAAAAAAAAAAAAAAAAAAAAAA111111IIIIIIIIIIIIIIIIIIIIIIIIIIIIIIIII
AAAAAAAAAAAAAAAAAAAAAAAAAA111111IIIIIIIIIIIIIIIIIIIIIIIIIIIIIIII
AAAAAAAAAAAAAAAAAAAAAAAAAAA111111IIIIIIIIIIIIIIIIIIIIIIIIIIIIIII
AAAAAAAAAAAAAAAAAAAAAAAAAAAA111111IIIIIIIIIIIIIIIIIIIIIIIIIIIIII
AAAAAAAAAAAAAAAAAAAAAAAAAAAAA111111IIIIIIIIIIIIIIIIIIIIIIIIIIIII
AAAAAAAAAAAAAAAAAAAAAAAAAAAAAA111111IIIIIIIIIIIIIIIIIIIIIIIIIIII
AAAAAAAAAAAAAAAAAAAAAAAAAAAAAAA111111IIIIIIIIIIIIIIIIIIIIIIIIIII
AAAAAAAAAAAAAAAAAAAAAAAAAAAAAAAA111111IIIIIIIIIIIIIIIIIIIIIIIIII
AAAAAAAAAAAAAAAAAAAAAAAAAAAAAAAAA111111IIIIIIIIIIIIIIIIIIIIIIIII
AAAAAAAAAAAAAAAAAAAAAAAAAAAAAAAAAA111111IIIIIIIIIIIIIIIIIIIIIIII
AAAAAAAAAAAAAAAAAAAAAAAAAAAAAAAAAAA111111IIIIIIIIIIIIIIIIIIIIIII
AAAAAAAAAAAAAAAAAAAAAAAAAAAAAAAAAAAA111111IIIIIIIIIIIIIIIIIIIIII
AAAAAAAAAAAAAAAAAAAAAAAAAAAAAAAAAAAAA111111IIIIIIIIIIIIIIIIIIIII
AAAAAAAAAAAAAAAAAAAAAAAAAAAAAAAAAAAAAA111111IIIIIIIIIIIIIIIIIIII
AAAAAAAAAAAAAAAAAAAAAAAAAAAAAAAAAAAAAAA111111IIIIIIIIIIIIIIIIIII
AAAAAAAAAAAAAAAAAAAAAAAAAAAAAAAAAAAAAAAA111111IIIIIIIIIIIIIIIIII
AAAAAAAAAAAAAAAAAAAAAAAAAAAAAAAAAAAAAAAAA111111IIIIIIIIIIIIIIIII
AAAAAAAAAAAAAAAAAAAAAAAAAAAAAAAAAAAAAAAAAA111111IIIIIIIIIIIIIIII
AAAAAAAAAAAAAAAAAAAAAAAAAAAAAAAAAAAAAAAAAAA111111IIIIIIIIIIIIIII
AAAAAAAAAAAAAAAAAAAAAAAAAAAAAAAAAAAAAAAAAAAA111111IIIIIIIIIIIIII
AAAAAAAAAAAAAAAAAAAAAAAAAAAAAAAAAAAAAAAAAAAAA111111IIIIIIIIIIIII
AAAAAAAAAAAAAAAAAAAAAAAAAAAAAAAAAAAAAAAAAAAAAA111111IIIIIIIIIIII
AAAAAAAAAAAAAAAAAAAAAAAAAAAAAAAAAAAAAAAAAAAAAAA111111IIIIIIIIIII
AAAAAAAAAAAAAAAAAAAAAAAAAAAAAAAAAAAAAAAAAAAAAAAA111111IIIIIIIIII
AAAAAAAAAAAAAAAAAAAAAAAAAAAAAAAAAAAAAAAAAAAAAAAAA111111IIIIIIIII
AAAAAAAAAAAAAAAAAAAAAAAAAAAAAAAAAAAAAAAAAAAAAAAAAA111111IIIIIIII
AAAAAAAAAAAAAAAAAAAAAAAAAAAAAAAAAAAAAAAAAAAAAAAAAAA111111IIIIIII
AAAAAAAAAAAAAAAAAAAAAAAAAAAAAAAAAAAAAAAAAAAAAAAAAAAA111111IIIIII
AAAAAAAAAAAAAAAAAAAAAAAAAAAAAAAAAAAAAAAAAAAAAAAAAAAAA111111IIIII
AAAAAAAAAAAAAAAAAAAAAAAAAAAAAAAAAAAAAAAAAAAAAAAAAAAAAA111111IIII
AAAAAAAAAAAAAAAAAAAAAAAAAAAAAAAAAAAAAAAAAAAAAAAAAAAAAAA111111III
AAAAAAAAAAAAAAAAAAAAAAAAAAAAAAAAAAAAAAAAAAAAAAAAAAAAAAAA111111II
AAAAAAAAAAAAAAAAAAAAAAAAAAAAAAAAAAAAAAAAAAAAAAAAAAAAAAAAA111111I
AAAAAAAAAAAAAAAAAAAAAAAAAAAAAAAAAAAAAAAAAAAAAAAAAAAAAAAAAA111111
AAAAAAAAAAAAAAAAAAAAAAAAAAAAAAAAAAAAAAAAAAAAAAAAAAAAAAAAAAA11111
AAAAAAAAAAAAAAAAAAAAAAAAAAAAAAAAAAAAAAAAAAAAAAAAAAAAAAAAAAAA1111
AAAAAAAAAAAAAAAAAAAAAAAAAAAAAAAAAAAAAAAAAAAAAAAAAAAAAAAAAAAAA111
AAAAAAAAAAAAAAAAAAAAAAAAAAAAAAAAAAAAAAAAAAAAAAAAAAAAAAAAAAAAAA11
AAAAAAAAAAAAAAAAAAAAAAAAAAAAAAAAAAAAAAAAAAAAAAAAAAAAAAAAAAAAAAA1
AAAAAAAAAAAAAAAAAAAAAAAAAAAAAAAAAAAAAAAAAAAAAAAAAAAAAAAAAAAAAAAA
A1111I11IIIIIIIIIIIIIIIIIIIIIIIIIIIIIIIIIIIIIIIIIIIIIIIIIIIIIIII
AA1111111IIIIIIIIIIIIIIIIIIIIIIIIIIIIIIIIIIIIIIIIIIIIIIIIIIIIIII
AAA1111111IIIIIIIIIIIIIIIIIIIIIIIIIIIIIIIIIIIIIIIIIIIIIIIIIIIIII
AAAA1111111IIIIIIIIIIIIIIIIIIIIIIIIIIIIIIIIIIIIIIIIIIIIIIIIIIIII
AAAAA1111111IIIIIIIIIIIIIIIIIIIIIIIIIIIIIIIIIIIIIIIIIIIIIIIIIIII
AAAAAA1111111IIIIIIIIIIIIIIIIIIIIIIIIIIIIIIIIIIIIIIIIIIIIIIIIIII
AAAAAAA1111111IIIIIIIIIIIIIIIIIIIIIIIIIIIIIIIIIIIIIIIIIIIIIIIIII
AAAAAAAA1111111IIIIIIIIIIIIIIIIIIIIIIIIIIIIIIIIIIIIIIIIIIIIIIIII
AAAAAAAAA1111111IIIIIIIIIIIIIIIIIIIIIIIIIIIIIIIIIIIIIIIIIIIIIIII
AAAAAAAAAA1111111IIIIIIIIIIIIIIIIIIIIIIIIIIIIIIIIIIIIIIIIIIIIIII
AAAAAAAAAAA1111111IIIIIIIIIIIIIIIIIIIIIIIIIIIIIIIIIIIIIIIIIIIIII
AAAAAAAAAAAA1111111IIIIIIIIIIIIIIIIIIIIIIIIIIIIIIIIIIIIIIIIIIIII
AAAAAAAAAAAAA1111111IIIIIIIIIIIIIIIIIIIIIIIIIIIIIIIIIIIIIIIIIIII
AAAAAAAAAAAAAA1111111IIIIIIIIIIIIIIIIIIIIIIIIIIIIIIIIIIIIIIIIIII
AAAAAAAAAAAAAAA1111111IIIIIIIIIIIIIIIIIIIIIIIIIIIIIIIIIIIIIIIIII
AAAAAAAAAAAAAAAA1111111IIIIIIIIIIIIIIIIIIIIIIIIIIIIIIIIIIIIIIIII
AAAAAAAAAAAAAAAAA1111111IIIIIIIIIIIIIIIIIIIIIIIIIIIIIIIIIIIIIIII
AAAAAAAAAAAAAAAAAA1111111IIIIIIIIIIIIIIIIIIIIIIIIIIIIIIIIIIIIIII
AAAAAAAAAAAAAAAAAAA1111111IIIIIIIIIIIIIIIIIIIIIIIIIIIIIIIIIIIIII
AAAAAAAAAAAAAAAAAAAA1111111IIIIIIIIIIIIIIIIIIIIIIIIIIIIIIIIIIIII
AAAAAAAAAAAAAAAAAAAAA1111111IIIIIIIIIIIIIIIIIIIIIIIIIIIIIIIIIIII
AAAAAAAAAAAAAAAAAAAAAA1111111IIIIIIIIIIIIIIIIIIIIIIIIIIIIIIIIIII
AAAAAAAAAAAAAAAAAAAAAAA1111111IIIIIIIIIIIIIIIIIIIIIIIIIIIIIIIIII
AAAAAAAAAAAAAAAAAAAAAAAA1111111IIIIIIIIIIIIIIIIIIIIIIIIIIIIIIIII
AAAAAAAAAAAAAAAAAAAAAAAAA1111111IIIIIIIIIIIIIIIIIIIIIIIIIIIIIIII
AAAAAAAAAAAAAAAAAAAAAAAAAA1111111IIIIIIIIIIIIIIIIIIIIIIIIIIIIIII
AAAAAAAAAAAAAAAAAAAAAAAAAAA1111111IIIIIIIIIIIIIIIIIIIIIIIIIIIIII
AAAAAAAAAAAAAAAAAAAAAAAAAAAA1111111IIIIIIIIIIIIIIIIIIIIIIIIIIIII
AAAAAAAAAAAAAAAAAAAAAAAAAAAAA1111111IIIIIIIIIIIIIIIIIIIIIIIIIIII
AAAAAAAAAAAAAAAAAAAAAAAAAAAAAA1111111IIIIIIIIIIIIIIIIIIIIIIIIIII
AAAAAAAAAAAAAAAAAAAAAAAAAAAAAAA1111111IIIIIIIIIIIIIIIIIIIIIIIIII
AAAAAAAAAAAAAAAAAAAAAAAAAAAAAAAA1111111IIIIIIIIIIIIIIIIIIIIIIIII
AAAAAAAAAAAAAAAAAAAAAAAAAAAAAAAAA1111111IIIIIIIIIIIIIIIIIIIIIIII
AAAAAAAAAAAAAAAAAAAAAAAAAAAAAAAAAA1111111IIIIIIIIIIIIIIIIIIIIIII
AAAAAAAAAAAAAAAAAAAAAAAAAAAAAAAAAAA1111111IIIIIIIIIIIIIIIIIIIIII
AAAAAAAAAAAAAAAAAAAAAAAAAAAAAAAAAAAA1111111IIIIIIIIIIIIIIIIIIIII
AAAAAAAAAAAAAAAAAAAAAAAAAAAAAAAAAAAAA1111111IIIIIIIIIIIIIIIIIIII
AAAAAAAAAAAAAAAAAAAAAAAAAAAAAAAAAAAAAA1111111IIIIIIIIIIIIIIIIIII
AAAAAAAAAAAAAAAAAAAAAAAAAAAAAAAAAAAAAAA1111111IIIIIIIIIIIIIIIIII
AAAAAAAAAAAAAAAAAAAAAAAAAAAAAAAAAAAAAAAA1111111IIIIIIIIIIIIIIIII
AAAAAAAAAAAAAAAAAAAAAAAAAAAAAAAAAAAAAAAAA1111111IIIIIIIIIIIIIIII
AAAAAAAAAAAAAAAAAAAAAAAAAAAAAAAAAAAAAAAAAA1111111IIIIIIIIIIIIIII
AAAAAAAAAAAAAAAAAAAAAAAAAAAAAAAAAAAAAAAAAAA1111111IIIIIIIIIIIIII
AAAAAAAAAAAAAAAAAAAAAAAAAAAAAAAAAAAAAAAAAAAA1111111IIIIIIIIIIIII
AAAAAAAAAAAAAAAAAAAAAAAAAAAAAAAAAAAAAAAAAAAAA1111111IIIIIIIIIIII
AAAAAAAAAAAAAAAAAAAAAAAAAAAAAAAAAAAAAAAAAAAAAA1111111IIIIIIIIIII
AAAAAAAAAAAAAAAAAAAAAAAAAAAAAAAAAAAAAAAAAAAAAAA1111111IIIIIIIIII
AAAAAAAAAAAAAAAAAAAAAAAAAAAAAAAAAAAAAAAAAAAAAAAA1111111IIIIIIIII
AAAAAAAAAAAAAAAAAAAAAAAAAAAAAAAAAAAAAAAAAAAAAAAAA1111111IIIIIIII
AAAAAAAAAAAAAAAAAAAAAAAAAAAAAAAAAAAAAAAAAAAAAAAAAA1111111IIIIIII
AAAAAAAAAAAAAAAAAAAAAAAAAAAAAAAAAAAAAAAAAAAAAAAAAAA1111111IIIIII
AAAAAAAAAAAAAAAAAAAAAAAAAAAAAAAAAAAAAAAAAAAAAAAAAAAA1111111IIIII
AAAAAAAAAAAAAAAAAAAAAAAAAAAAAAAAAAAAAAAAAAAAAAAAAAAAA1111111IIII
AAAAAAAAAAAAAAAAAAAAAAAAAAAAAAAAAAAAAAAAAAAAAAAAAAAAAA1111111III
AAAAAAAAAAAAAAAAAAAAAAAAAAAAAAAAAAAAAAAAAAAAAAAAAAAAAAA1111111II
AAAAAAAAAAAAAAAAAAAAAAAAAAAAAAAAAAAAAAAAAAAAAAAAAAAAAAAA1111111I
AAAAAAAAAAAAAAAAAAAAAAAAAAAAAAAAAAAAAAAAAAAAAAAAAAAAAAAAA1111111
AAAAAAAAAAAAAAAAAAAAAAAAAAAAAAAAAAAAAAAAAAAAAAAAAAAAAAAAAA111111
AAAAAAAAAAAAAAAAAAAAAAAAAAAAAAAAAAAAAAAAAAAAAAAAAAAAAAAAAAA11111
AAAAAAAAAAAAAAAAAAAAAAAAAAAAAAAAAAAAAAAAAAAAAAAAAAAAAAAAAAAA1111
AAAAAAAAAAAAAAAAAAAAAAAAAAAAAAAAAAAAAAAAAAAAAAAAAAAAAAAAAAAAA111
AAAAAAAAAAAAAAAAAAAAAAAAAAAAAAAAAAAAAAAAAAAAAAAAAAAAAAAAAAAAAA11
AAAAAAAAAAAAAAAAAAAAAAAAAAAAAAAAAAAAAAAAAAAAAAAAAAAAAAAAAAAAAAA1
AAAAAAAAAAAAAAAAAAAAAAAAAAAAAAAAAAAAAAAAAAAAAAAAAAAAAAAAAAAAAAAA
A1111111IIIIIIIIIIIIIIIIIIIIIIIIIIIIIIIIIIIIIIIIIIIIIIIIIIIIIIII
AA1111111IIIIIIIIIIIIIIIIIIIIIIIIIIIIIIIIIIIIIIIIIIIIIIIIIIIIIII
AAA1111111IIIIIIIIIIIIIIIIIIIIIIIIIIIIIIIIIIIIIIIIIIIIIIIIIIIIII
AAAA1111111IIIIIIIIIIIIIIIIIIIIIIIIIIIIIIIIIIIIIIIIIIIIIIIIIIIII
AAAAA1111111IIIIIIIIIIIIIIIIIIIIIIIIIIIIIIIIIIIIIIIIIIIIIIIIIIII
AAAAAA1111111IIIIIIIIIIIIIIIIIIIIIIIIIIIIIIIIIIIIIIIIIIIIIIIIIII
AAAAAAA1111111IIIIIIIIIIIIIIIIIIIIIIIIIIIIIIIIIIIIIIIIIIIIIIIIII
AAAAAAAA1111111IIIIIIIIIIIIIIIIIIIIIIIIIIIIIIIIIIIIIIIIIIIIIIIII
AAAAAAAAA1111111IIIIIIIIIIIIIIIIIIIIIIIIIIIIIIIIIIIIIIIIIIIIIIII
AAAAAAAAAA1111111IIIIIIIIIIIIIIIIIIIIIIIIIIIIIIIIIIIIIIIIIIIIIII
AAAAAAAAAAA1111111IIIIIIIIIIIIIIIIIIIIIIIIIIIIIIIIIIIIIIIIIIIIII
AAAAAAAAAAAA1111111IIIIIIIIIIIIIIIIIIIIIIIIIIIIIIIIIIIIIIIIIIIII
AAAAAAAAAAAAA1111111IIIIIIIIIIIIIIIIIIIIIIIIIIIIIIIIIIIIIIIIIIII
AAAAAAAAAAAAAA1111111IIIIIIIIIIIIIIIIIIIIIIIIIIIIIIIIIIIIIIIIIII
AAAAAAAAAAAAAAA1111111IIIIIIIIIIIIIIIIIIIIIIIIIIIIIIIIIIIIIIIIII
AAAAAAAAAAAAAAAA1111111IIIIIIIIIIIIIIIIIIIIIIIIIIIIIIIIIIIIIIIII
AAAAAAAAAAAAAAAAA1111111IIIIIIIIIIIIIIIIIIIIIIIIIIIIIIIIIIIIIIII
AAAAAAAAAAAAAAAAAA1111111IIIIIIIIIIIIIIIIIIIIIIIIIIIIIIIIIIIIIII
AAAAAAAAAAAAAAAAAAA1111111IIIIIIIIIIIIIIIIIIIIIIIIIIIIIIIIIIIIII
AAAAAAAAAAAAAAAAAAAA1111111IIIIIIIIIIIIIIIIIIIIIIIIIIIIIIIIIIIII
AAAAAAAAAAAAAAAAAAAAA1111111IIIIIIIIIIIIIIIIIIIIIIIIIIIIIIIIIIII
AAAAAAAAAAAAAAAAAAAAAA1111111IIIIIIIIIIIIIIIIIIIIIIIIIIIIIIIIIII
AAAAAAAAAAAAAAAAAAAAAAA1111111IIIIIIIIIIIIIIIIIIIIIIIIIIIIIIIIII
AAAAAAAAAAAAAAAAAAAAAAAA1111111IIIIIIIIIIIIIIIIIIIIIIIIIIIIIIIII
AAAAAAAAAAAAAAAAAAAAAAAAA1111111IIIIIIIIIIIIIIIIIIIIIIIIIIIIIIII
AAAAAAAAAAAAAAAAAAAAAAAAAA1111111IIIIIIIIIIIIIIIIIIIIIIIIIIIIIII
AAAAAAAAAAAAAAAAAAAAAAAAAAA1111111IIIIIIIIIIIIIIIIIIIIIIIIIIIIII
AAAAAAAAAAAAAAAAAAAAAAAAAAAA1111111IIIIIIIIIIIIIIIIIIIIIIIIIIIII
AAAAAAAAAAAAAAAAAAAAAAAAAAAAA1111111IIIIIIIIIIIIIIIIIIIIIIIIIIII
AAAAAAAAAAAAAAAAAAAAAAAAAAAAAA1111111IIIIIIIIIIIIIIIIIIIIIIIIIII
AAAAAAAAAAAAAAAAAAAAAAAAAAAAAAA1111111IIIIIIIIIIIIIIIIIIIIIIIIII
AAAAAAAAAAAAAAAAAAAAAAAAAAAAAAAA1111111IIIIIIIIIIIIIIIIIIIIIIIII
AAAAAAAAAAAAAAAAAAAAAAAAAAAAAAAAA1111111IIIIIIIIIIIIIIIIIIIIIIII
AAAAAAAAAAAAAAAAAAAAAAAAAAAAAAAAAA1111111IIIIIIIIIIIIIIIIIIIIIII
AAAAAAAAAAAAAAAAAAAAAAAAAAAAAAAAAAA1111111IIIIIIIIIIIIIIIIIIIIII
AAAAAAAAAAAAAAAAAAAAAAAAAAAAAAAAAAAA1111111IIIIIIIIIIIIIIIIIIIII
AAAAAAAAAAAAAAAAAAAAAAAAAAAAAAAAAAAAA1111111IIIIIIIIIIIIIIIIIIII
AAAAAAAAAAAAAAAAAAAAAAAAAAAAAAAAAAAAAA1111111IIIIIIIIIIIIIIIIIII
AAAAAAAAAAAAAAAAAAAAAAAAAAAAAAAAAAAAAAA1111111IIIIIIIIIIIIIIIIII
AAAAAAAAAAAAAAAAAAAAAAAAAAAAAAAAAAAAAAAA1111111IIIIIIIIIIIIIIIII
AAAAAAAAAAAAAAAAAAAAAAAAAAAAAAAAAAAAAAAAA1111111IIIIIIIIIIIIIIII
AAAAAAAAAAAAAAAAAAAAAAAAAAAAAAAAAAAAAAAAAA1111111IIIIIIIIIIIIIII
AAAAAAAAAAAAAAAAAAAAAAAAAAAAAAAAAAAAAAAAAAA1111111IIIIIIIIIIIIII
AAAAAAAAAAAAAAAAAAAAAAAAAAAAAAAAAAAAAAAAAAAA1111111IIIIIIIIIIIII
AAAAAAAAAAAAAAAAAAAAAAAAAAAAAAAAAAAAAAAAAAAAA1111111IIIIIIIIIIII
AAAAAAAAAAAAAAAAAAAAAAAAAAAAAAAAAAAAAAAAAAAAAA1111111IIIIIIIIIII
AAAAAAAAAAAAAAAAAAAAAAAAAAAAAAAAAAAAAAAAAAAAAAA1111111IIIIIIIIII
AAAAAAAAAAAAAAAAAAAAAAAAAAAAAAAAAAAAAAAAAAAAAAAA1111111IIIIIIIII
AAAAAAAAAAAAAAAAAAAAAAAAAAAAAAAAAAAAAAAAAAAAAAAAA1111111IIIIIIII
AAAAAAAAAAAAAAAAAAAAAAAAAAAAAAAAAAAAAAAAAAAAAAAAAA1111111IIIIIII
AAAAAAAAAAAAAAAAAAAAAAAAAAAAAAAAAAAAAAAAAAAAAAAAAAA1111111IIIIII
AAAAAAAAAAAAAAAAAAAAAAAAAAAAAAAAAAAAAAAAAAAAAAAAAAAA1111111IIIII
AAAAAAAAAAAAAAAAAAAAAAAAAAAAAAAAAAAAAAAAAAAAAAAAAAAAA1111111IIII
AAAAAAAAAAAAAAAAAAAAAAAAAAAAAAAAAAAAAAAAAAAAAAAAAAAAAA1111111III
AAAAAAAAAAAAAAAAAAAAAAAAAAAAAAAAAAAAAAAAAAAAAAAAAAAAAAA1111111II
AAAAAAAAAAAAAAAAAAAAAAAAAAAAAAAAAAAAAAAAAAAAAAAAAAAAAAAA1111111I
AAAAAAAAAAAAAAAAAAAAAAAAAAAAAAAAAAAAAAAAAAAAAAAAAAAAAAAAA1111111
AAAAAAAAAAAAAAAAAAAAAAAAAAAAAAAAAAAAAAAAAAAAAAAAAAAAAAAAAA111111
AAAAAAAAAAAAAAAAAAAAAAAAAAAAAAAAAAAAAAAAAAAAAAAAAAAAAAAAAAA11111
AAAAAAAAAAAAAAAAAAAAAAAAAAAAAAAAAAAAAAAAAAAAAAAAAAAAAAAAAAAA1111
AAAAAAAAAAAAAAAAAAAAAAAAAAAAAAAAAAAAAAAAAAAAAAAAAAAAAAAAAAAAA111
AAAAAAAAAAAAAAAAAAAAAAAAAAAAAAAAAAAAAAAAAAAAAAAAAAAAAAAAAAAAAA11
AAAAAAAAAAAAAAAAAAAAAAAAAAAAAAAAAAAAAAAAAAAAAAAAAAAAAAAAAAAAAAA1
AAAAAAAAAAAAAAAAAAAAAAAAAAAAAAAAAAAAAAAAAAAAAAAAAAAAAAAAAAAAAAAA
[MLOP] Prefetch Degree Mean: 9.44855
[MLOP] Prefetch Degree SD: 1.73279
[MLOP] Max Score Left Mean (%): 83.1063
[MLOP] Max Score Left SD (%): 5.99111
[MLOP] Max Score Right Mean (%): 98.1589
[MLOP] Max Score Right SD (%): 2.87873

DRAM Statistics
 CHANNEL 0
 RQ ROW_BUFFER_HIT:    8822706  ROW_BUFFER_MISS:   28729719
 DBUS_CONGESTED:         22
 WQ ROW_BUFFER_HIT:    1343109  ROW_BUFFER_MISS:   11607138  FULL:          0

 AVG_CONGESTED_CYCLE: 5
 All warmup complete: 5
Channel 0 Bank busy for read cycles: 0
Channel 0 Bank busy for write cycles: 0
Channel 0
Rank 0
0banks busy for read cycles: 136329
0banks busy for write cycles: 0
1banks busy for read cycles: 20868071
1banks busy for write cycles: 1401155
2banks busy for read cycles: 67131126
2banks busy for write cycles: 1400997
3banks busy for read cycles: 112480234
3banks busy for write cycles: 1400877
4banks busy for read cycles: 126398627
4banks busy for write cycles: 1400927
5banks busy for read cycles: 121960877
5banks busy for write cycles: 1434439
6banks busy for read cycles: 127481224
6banks busy for write cycles: 3269310
7banks busy for read cycles: 154263226
7banks busy for write cycles: 40856329
8banks busy for read cycles: 217941779
8banks busy for write cycles: 282838785

CPU 0 Branch Prediction Accuracy: 99.4276% MPKI: 1.31038 Average ROB Occupancy at Mispredict: 39.5693
Branch types
NOT_BRANCH: 1079979429 77.1079%
BRANCH_DIRECT_JUMP: 0 0%
BRANCH_INDIRECT: 0 0%
BRANCH_CONDITIONAL: 320628426 22.8921%
BRANCH_DIRECT_CALL: 0 0%
BRANCH_INDIRECT_CALL: 0 0%
BRANCH_RETURN: 0 0%
BRANCH_OTHER: 0 0%


CPU 1 Branch Prediction Accuracy: 97.8172% MPKI: 3.18857 Average ROB Occupancy at Mispredict: 178.545
Branch types
NOT_BRANCH: 170246983 85.1235%
BRANCH_DIRECT_JUMP: 9235869 4.61793%
BRANCH_INDIRECT: 0 0%
BRANCH_CONDITIONAL: 20514933 10.2575%
BRANCH_DIRECT_CALL: 1250 0.000625%
BRANCH_INDIRECT_CALL: 0 0%
BRANCH_RETURN: 1250 0.000625%
BRANCH_OTHER: 0 0%


CPU 2 Branch Prediction Accuracy: 98.2536% MPKI: 2.22575 Average ROB Occupancy at Mispredict: 213.438
Branch types
NOT_BRANCH: 395042699 87.1647%
BRANCH_DIRECT_JUMP: 45 9.92908e-06%
BRANCH_INDIRECT: 0 0%
BRANCH_CONDITIONAL: 58171587 12.8353%
BRANCH_DIRECT_CALL: 16 3.53034e-06%
BRANCH_INDIRECT_CALL: 0 0%
BRANCH_RETURN: 12 2.64776e-06%
BRANCH_OTHER: 0 0%


CPU 3 Branch Prediction Accuracy: 99.2844% MPKI: 1.26646 Average ROB Occupancy at Mispredict: 66.9005
Branch types
NOT_BRANCH: 712860612 82.1891%
BRANCH_DIRECT_JUMP: 120031 0.013839%
BRANCH_INDIRECT: 0 0%
BRANCH_CONDITIONAL: 154361154 17.797%
BRANCH_DIRECT_CALL: 148 1.70636e-05%
BRANCH_INDIRECT_CALL: 0 0%
BRANCH_RETURN: 149 1.71789e-05%
BRANCH_OTHER: 0 0%

DRAM PAGES: 1048576
Allocated PAGES: 146142
