
*** ChampSim Multicore Out-of-Order Simulator ***

Warmup Instructions: 50000000
Simulation Instructions: 200000000
Number of CPUs: 4
LLC sets: 8192
LLC ways: 16
Off-chip DRAM Size: 4096 MB Channels: 1 Width: 64-bit Data Rate: 6400 MT/s
CPU 0 runs ./traces/ligra/ligra_PageRankDelta.com-lj.ungraph.gcc_6.3.0_O3.drop_3500M.length_250M.champsimtrace.xz
.xz
CPU 1 runs ./traces/ligra/ligra_PageRankDelta.com-lj.ungraph.gcc_6.3.0_O3.drop_3500M.length_250M.champsimtrace.xz
.xz
CPU 2 runs ./traces/ligra/ligra_PageRank.com-lj.ungraph.gcc_6.3.0_O3.drop_79500M.length_250M.champsimtrace.xz
.xz
CPU 3 runs ./traces/spec/621.wrf_s-6673B.champsimtrace.xz
.xz
BTB has LRU replacement policy
ITLB has LRU replacement policy
DTLB has LRU replacement policy
STLB has LRU replacement policy
L1I has LRU replacement policy
L1D has LRU replacement policy
Initialize SRRIP state for L2C
Initialize DRRIP state for LLC
BTB has LRU replacement policy
ITLB has LRU replacement policy
DTLB has LRU replacement policy
STLB has LRU replacement policy
L1I has LRU replacement policy
L1D has LRU replacement policy
Initialize SRRIP state for L2C
Initialize DRRIP state for LLC
BTB has LRU replacement policy
ITLB has LRU replacement policy
DTLB has LRU replacement policy
STLB has LRU replacement policy
L1I has LRU replacement policy
L1D has LRU replacement policy
Initialize SRRIP state for L2C
Initialize DRRIP state for LLC
BTB has LRU replacement policy
ITLB has LRU replacement policy
DTLB has LRU replacement policy
STLB has LRU replacement policy
L1I has LRU replacement policy
L1D has LRU replacement policy
Initialize SRRIP state for L2C
Initialize DRRIP state for LLC
Heartbeat CPU 2 instructions: 10000002 cycles: 3222505 heartbeat IPC: 3.10318 cumulative IPC: 3.10318 (Simulation time: 0 hr 2 min 30 sec) 
Heartbeat CPU 0 instructions: 10000000 cycles: 3333344 heartbeat IPC: 2.99999 cumulative IPC: 2.99999 (Simulation time: 0 hr 2 min 36 sec) 
Heartbeat CPU 1 instructions: 10000000 cycles: 3333345 heartbeat IPC: 2.99999 cumulative IPC: 2.99999 (Simulation time: 0 hr 2 min 36 sec) 
Heartbeat CPU 3 instructions: 10000002 cycles: 3558779 heartbeat IPC: 2.80995 cumulative IPC: 2.80995 (Simulation time: 0 hr 2 min 47 sec) 
Heartbeat CPU 2 instructions: 20000001 cycles: 6440770 heartbeat IPC: 3.10726 cumulative IPC: 3.10522 (Simulation time: 0 hr 4 min 56 sec) 
Heartbeat CPU 3 instructions: 20000003 cycles: 6464436 heartbeat IPC: 3.44156 cumulative IPC: 3.09385 (Simulation time: 0 hr 4 min 57 sec) 
Heartbeat CPU 0 instructions: 20000002 cycles: 6666678 heartbeat IPC: 3 cumulative IPC: 3 (Simulation time: 0 hr 5 min 6 sec) 
Heartbeat CPU 1 instructions: 20000002 cycles: 6666679 heartbeat IPC: 3 cumulative IPC: 2.99999 (Simulation time: 0 hr 5 min 6 sec) 
Heartbeat CPU 3 instructions: 30000000 cycles: 9284835 heartbeat IPC: 3.5456 cumulative IPC: 3.23108 (Simulation time: 0 hr 7 min 10 sec) 
Heartbeat CPU 2 instructions: 30000000 cycles: 9669137 heartbeat IPC: 3.09754 cumulative IPC: 3.10266 (Simulation time: 0 hr 7 min 29 sec) 
Heartbeat CPU 0 instructions: 30000003 cycles: 10000012 heartbeat IPC: 3 cumulative IPC: 3 (Simulation time: 0 hr 7 min 44 sec) 
Heartbeat CPU 1 instructions: 30000003 cycles: 10000013 heartbeat IPC: 3 cumulative IPC: 3 (Simulation time: 0 hr 7 min 44 sec) 
Heartbeat CPU 3 instructions: 40000002 cycles: 12171016 heartbeat IPC: 3.46479 cumulative IPC: 3.2865 (Simulation time: 0 hr 9 min 25 sec) 
Heartbeat CPU 2 instructions: 40000002 cycles: 12904358 heartbeat IPC: 3.09098 cumulative IPC: 3.09973 (Simulation time: 0 hr 10 min 2 sec) 
Heartbeat CPU 0 instructions: 40000002 cycles: 13333345 heartbeat IPC: 3 cumulative IPC: 3 (Simulation time: 0 hr 10 min 20 sec) 
Heartbeat CPU 1 instructions: 40000002 cycles: 13333346 heartbeat IPC: 3 cumulative IPC: 3 (Simulation time: 0 hr 10 min 20 sec) 
Heartbeat CPU 3 instructions: 50000000 cycles: 15075316 heartbeat IPC: 3.44317 cumulative IPC: 3.31668 (Simulation time: 0 hr 11 min 45 sec) 
Heartbeat CPU 2 instructions: 50000000 cycles: 16136294 heartbeat IPC: 3.09412 cumulative IPC: 3.0986 (Simulation time: 0 hr 12 min 35 sec) 
Heartbeat CPU 0 instructions: 50000000 cycles: 16666677 heartbeat IPC: 3 cumulative IPC: 3 (Simulation time: 0 hr 12 min 55 sec) 
Heartbeat CPU 1 instructions: 50000000 cycles: 16666678 heartbeat IPC: 3 cumulative IPC: 3 (Simulation time: 0 hr 12 min 55 sec) 

Warmup complete CPU 0 instructions: 50000005 cycles: 16666679 (Simulation time: 0 hr 12 min 55 sec) 
Warmup complete CPU 1 instructions: 50000001 cycles: 16666679 (Simulation time: 0 hr 12 min 55 sec) 
Warmup complete CPU 2 instructions: 51561318 cycles: 16666678 (Simulation time: 0 hr 12 min 55 sec) 
Warmup complete CPU 3 instructions: 54919073 cycles: 16666678 (Simulation time: 0 hr 12 min 55 sec) 

Heartbeat CPU 3 instructions: 60000001 cycles: 23631493 heartbeat IPC: 1.16875 cumulative IPC: 0.729514 (Simulation time: 0 hr 14 min 59 sec) 
Heartbeat CPU 1 instructions: 60000002 cycles: 25744240 heartbeat IPC: 1.10162 cumulative IPC: 1.10162 (Simulation time: 0 hr 15 min 35 sec) 
Heartbeat CPU 0 instructions: 60000002 cycles: 25746167 heartbeat IPC: 1.10138 cumulative IPC: 1.10138 (Simulation time: 0 hr 15 min 36 sec) 
Heartbeat CPU 1 instructions: 70000000 cycles: 34899363 heartbeat IPC: 1.09228 cumulative IPC: 1.09693 (Simulation time: 0 hr 18 min 5 sec) 
Heartbeat CPU 0 instructions: 70000000 cycles: 34899414 heartbeat IPC: 1.09251 cumulative IPC: 1.09693 (Simulation time: 0 hr 18 min 5 sec) 
Heartbeat CPU 3 instructions: 70000000 cycles: 41634242 heartbeat IPC: 0.555471 cumulative IPC: 0.604021 (Simulation time: 0 hr 19 min 37 sec) 
Heartbeat CPU 0 instructions: 80000001 cycles: 44328963 heartbeat IPC: 1.0605 cumulative IPC: 1.08451 (Simulation time: 0 hr 20 min 22 sec) 
Heartbeat CPU 1 instructions: 80000001 cycles: 44361764 heartbeat IPC: 1.05681 cumulative IPC: 1.08322 (Simulation time: 0 hr 20 min 23 sec) 
Heartbeat CPU 3 instructions: 80000000 cycles: 53363586 heartbeat IPC: 0.852563 cumulative IPC: 0.683462 (Simulation time: 0 hr 22 min 54 sec) 
Heartbeat CPU 0 instructions: 90000000 cycles: 53408530 heartbeat IPC: 1.10137 cumulative IPC: 1.08868 (Simulation time: 0 hr 22 min 55 sec) 
Heartbeat CPU 1 instructions: 90000000 cycles: 53455653 heartbeat IPC: 1.09964 cumulative IPC: 1.08728 (Simulation time: 0 hr 22 min 56 sec) 
Heartbeat CPU 0 instructions: 100000001 cycles: 62657730 heartbeat IPC: 1.08117 cumulative IPC: 1.08717 (Simulation time: 0 hr 25 min 20 sec) 
Heartbeat CPU 1 instructions: 100000001 cycles: 62708176 heartbeat IPC: 1.08079 cumulative IPC: 1.08598 (Simulation time: 0 hr 25 min 21 sec) 
Heartbeat CPU 3 instructions: 90000003 cycles: 66263374 heartbeat IPC: 0.775207 cumulative IPC: 0.707324 (Simulation time: 0 hr 26 min 20 sec) 
Heartbeat CPU 2 instructions: 60000001 cycles: 66554659 heartbeat IPC: 0.19834 cumulative IPC: 0.169153 (Simulation time: 0 hr 26 min 24 sec) 
Heartbeat CPU 0 instructions: 110000000 cycles: 71873461 heartbeat IPC: 1.0851 cumulative IPC: 1.08682 (Simulation time: 0 hr 27 min 46 sec) 
Heartbeat CPU 1 instructions: 110000000 cycles: 71931470 heartbeat IPC: 1.08421 cumulative IPC: 1.08568 (Simulation time: 0 hr 27 min 47 sec) 
Heartbeat CPU 0 instructions: 120000003 cycles: 81424683 heartbeat IPC: 1.04699 cumulative IPC: 1.08095 (Simulation time: 0 hr 30 min 3 sec) 
Heartbeat CPU 1 instructions: 120000003 cycles: 81489116 heartbeat IPC: 1.04628 cumulative IPC: 1.07987 (Simulation time: 0 hr 30 min 4 sec) 
Heartbeat CPU 0 instructions: 130000001 cycles: 91255688 heartbeat IPC: 1.01719 cumulative IPC: 1.07254 (Simulation time: 0 hr 32 min 21 sec) 
Heartbeat CPU 1 instructions: 130000001 cycles: 91295897 heartbeat IPC: 1.0197 cumulative IPC: 1.07197 (Simulation time: 0 hr 32 min 22 sec) 
Heartbeat CPU 3 instructions: 100000000 cycles: 91853028 heartbeat IPC: 0.390783 cumulative IPC: 0.599589 (Simulation time: 0 hr 32 min 32 sec) 
Heartbeat CPU 3 instructions: 110000000 cycles: 98275813 heartbeat IPC: 1.55696 cumulative IPC: 0.674936 (Simulation time: 0 hr 34 min 42 sec) 
Heartbeat CPU 1 instructions: 140000002 cycles: 100444098 heartbeat IPC: 1.09311 cumulative IPC: 1.07428 (Simulation time: 0 hr 35 min 22 sec) 
Heartbeat CPU 0 instructions: 140000002 cycles: 100519743 heartbeat IPC: 1.07944 cumulative IPC: 1.07331 (Simulation time: 0 hr 35 min 24 sec) 
Heartbeat CPU 3 instructions: 120000001 cycles: 106722546 heartbeat IPC: 1.18389 cumulative IPC: 0.722673 (Simulation time: 0 hr 37 min 25 sec) 
Heartbeat CPU 1 instructions: 150000003 cycles: 109532493 heartbeat IPC: 1.1003 cumulative IPC: 1.07682 (Simulation time: 0 hr 38 min 15 sec) 
Heartbeat CPU 0 instructions: 150000003 cycles: 109763853 heartbeat IPC: 1.08177 cumulative IPC: 1.07415 (Simulation time: 0 hr 38 min 19 sec) 
Heartbeat CPU 3 instructions: 130000000 cycles: 113678067 heartbeat IPC: 1.43771 cumulative IPC: 0.773939 (Simulation time: 0 hr 39 min 22 sec) 
Heartbeat CPU 1 instructions: 160000000 cycles: 118573026 heartbeat IPC: 1.10613 cumulative IPC: 1.07942 (Simulation time: 0 hr 40 min 47 sec) 
Heartbeat CPU 0 instructions: 160000000 cycles: 118828266 heartbeat IPC: 1.10322 cumulative IPC: 1.07673 (Simulation time: 0 hr 40 min 53 sec) 
Heartbeat CPU 3 instructions: 140000000 cycles: 121601108 heartbeat IPC: 1.26214 cumulative IPC: 0.810801 (Simulation time: 0 hr 41 min 54 sec) 
Heartbeat CPU 1 instructions: 170000001 cycles: 127559527 heartbeat IPC: 1.11278 cumulative IPC: 1.08213 (Simulation time: 0 hr 43 min 47 sec) 
Heartbeat CPU 0 instructions: 170000001 cycles: 127795726 heartbeat IPC: 1.11514 cumulative IPC: 1.07983 (Simulation time: 0 hr 43 min 54 sec) 
Heartbeat CPU 3 instructions: 150000002 cycles: 129885760 heartbeat IPC: 1.20705 cumulative IPC: 0.839796 (Simulation time: 0 hr 44 min 30 sec) 
Heartbeat CPU 2 instructions: 70000000 cycles: 130641865 heartbeat IPC: 0.156037 cumulative IPC: 0.161778 (Simulation time: 0 hr 44 min 43 sec) 
Heartbeat CPU 1 instructions: 180000001 cycles: 136509318 heartbeat IPC: 1.11734 cumulative IPC: 1.08476 (Simulation time: 0 hr 46 min 41 sec) 
Heartbeat CPU 0 instructions: 180000001 cycles: 136914884 heartbeat IPC: 1.09659 cumulative IPC: 1.0811 (Simulation time: 0 hr 46 min 47 sec) 
Heartbeat CPU 3 instructions: 160000001 cycles: 137320784 heartbeat IPC: 1.34499 cumulative IPC: 0.870927 (Simulation time: 0 hr 46 min 54 sec) 
Heartbeat CPU 1 instructions: 190000002 cycles: 145579487 heartbeat IPC: 1.10252 cumulative IPC: 1.08601 (Simulation time: 0 hr 49 min 25 sec) 
Heartbeat CPU 3 instructions: 170000001 cycles: 145829348 heartbeat IPC: 1.17529 cumulative IPC: 0.890977 (Simulation time: 0 hr 49 min 31 sec) 
Heartbeat CPU 0 instructions: 190000002 cycles: 146050262 heartbeat IPC: 1.09465 cumulative IPC: 1.08205 (Simulation time: 0 hr 49 min 35 sec) 
Heartbeat CPU 3 instructions: 180000000 cycles: 152133834 heartbeat IPC: 1.58617 cumulative IPC: 0.92333 (Simulation time: 0 hr 51 min 38 sec) 
Heartbeat CPU 1 instructions: 200000000 cycles: 154759607 heartbeat IPC: 1.08931 cumulative IPC: 1.08623 (Simulation time: 0 hr 52 min 27 sec) 
Heartbeat CPU 0 instructions: 200000000 cycles: 155217044 heartbeat IPC: 1.0909 cumulative IPC: 1.08264 (Simulation time: 0 hr 52 min 35 sec) 
Heartbeat CPU 1 instructions: 210000000 cycles: 163838827 heartbeat IPC: 1.10142 cumulative IPC: 1.08716 (Simulation time: 0 hr 55 min 1 sec) 
Heartbeat CPU 3 instructions: 190000000 cycles: 163976096 heartbeat IPC: 0.844433 cumulative IPC: 0.916988 (Simulation time: 0 hr 55 min 4 sec) 
Heartbeat CPU 0 instructions: 210000000 cycles: 164326628 heartbeat IPC: 1.09774 cumulative IPC: 1.08357 (Simulation time: 0 hr 55 min 10 sec) 
Heartbeat CPU 1 instructions: 220000000 cycles: 172922183 heartbeat IPC: 1.10091 cumulative IPC: 1.08796 (Simulation time: 0 hr 57 min 43 sec) 
Heartbeat CPU 0 instructions: 220000000 cycles: 173332063 heartbeat IPC: 1.11044 cumulative IPC: 1.08512 (Simulation time: 0 hr 57 min 51 sec) 
Heartbeat CPU 3 instructions: 200000003 cycles: 175814002 heartbeat IPC: 0.844744 cumulative IPC: 0.911614 (Simulation time: 0 hr 58 min 39 sec) 
Heartbeat CPU 1 instructions: 230000002 cycles: 181871999 heartbeat IPC: 1.11734 cumulative IPC: 1.08955 (Simulation time: 1 hr 0 min 42 sec) 
Heartbeat CPU 0 instructions: 230000002 cycles: 182193011 heartbeat IPC: 1.12855 cumulative IPC: 1.08744 (Simulation time: 1 hr 0 min 48 sec) 
Heartbeat CPU 2 instructions: 80000002 cycles: 186764635 heartbeat IPC: 0.178181 cumulative IPC: 0.16719 (Simulation time: 1 hr 2 min 12 sec) 
Heartbeat CPU 3 instructions: 210000000 cycles: 187599803 heartbeat IPC: 0.848478 cumulative IPC: 0.907261 (Simulation time: 1 hr 2 min 28 sec) 
Heartbeat CPU 1 instructions: 240000000 cycles: 190788536 heartbeat IPC: 1.12151 cumulative IPC: 1.09119 (Simulation time: 1 hr 3 min 17 sec) 
Heartbeat CPU 0 instructions: 240000000 cycles: 191038570 heartbeat IPC: 1.13051 cumulative IPC: 1.08963 (Simulation time: 1 hr 3 min 21 sec) 
Heartbeat CPU 3 instructions: 220000000 cycles: 199628027 heartbeat IPC: 0.831378 cumulative IPC: 0.902272 (Simulation time: 1 hr 6 min 3 sec) 
*** Reached end of trace for Core: 1 Repeating trace: ./traces/ligra/ligra_PageRankDelta.com-lj.ungraph.gcc_6.3.0_O3.drop_3500M.length_250M.champsimtrace.xz
Heartbeat CPU 1 instructions: 250000002 cycles: 199673368 heartbeat IPC: 1.12551 cumulative IPC: 1.09286 (Simulation time: 1 hr 6 min 4 sec) 
Finished CPU 1 instructions: 200000001 cycles: 183006689 cumulative IPC: 1.09286 (Simulation time: 1 hr 6 min 4 sec) 
*** Reached end of trace for Core: 0 Repeating trace: ./traces/ligra/ligra_PageRankDelta.com-lj.ungraph.gcc_6.3.0_O3.drop_3500M.length_250M.champsimtrace.xz
Heartbeat CPU 0 instructions: 250000001 cycles: 199858751 heartbeat IPC: 1.13376 cumulative IPC: 1.09175 (Simulation time: 1 hr 6 min 6 sec) 
Finished CPU 0 instructions: 200000000 cycles: 183192827 cumulative IPC: 1.09175 (Simulation time: 1 hr 6 min 6 sec) 
Heartbeat CPU 1 instructions: 260000001 cycles: 209518810 heartbeat IPC: 1.0157 cumulative IPC: 1.08892 (Simulation time: 1 hr 8 min 29 sec) 
Heartbeat CPU 0 instructions: 260000001 cycles: 209735042 heartbeat IPC: 1.01253 cumulative IPC: 1.0877 (Simulation time: 1 hr 8 min 32 sec) 
Heartbeat CPU 3 instructions: 230000001 cycles: 215509413 heartbeat IPC: 0.629668 cumulative IPC: 0.880499 (Simulation time: 1 hr 9 min 59 sec) 
Heartbeat CPU 1 instructions: 270000002 cycles: 218799417 heartbeat IPC: 1.07752 cumulative IPC: 1.08839 (Simulation time: 1 hr 10 min 48 sec) 
Heartbeat CPU 0 instructions: 270000002 cycles: 219078134 heartbeat IPC: 1.07031 cumulative IPC: 1.08689 (Simulation time: 1 hr 10 min 53 sec) 
Heartbeat CPU 0 instructions: 280000001 cycles: 228936562 heartbeat IPC: 1.01436 cumulative IPC: 1.08353 (Simulation time: 1 hr 13 min 28 sec) 
Heartbeat CPU 1 instructions: 280000000 cycles: 229067483 heartbeat IPC: 0.973893 cumulative IPC: 1.08286 (Simulation time: 1 hr 13 min 30 sec) 
Heartbeat CPU 3 instructions: 240000001 cycles: 233751691 heartbeat IPC: 0.548177 cumulative IPC: 0.852574 (Simulation time: 1 hr 14 min 45 sec) 
Heartbeat CPU 0 instructions: 290000000 cycles: 239375045 heartbeat IPC: 0.957994 cumulative IPC: 1.07764 (Simulation time: 1 hr 16 min 29 sec) 
Heartbeat CPU 1 instructions: 290000000 cycles: 239394917 heartbeat IPC: 0.968295 cumulative IPC: 1.07755 (Simulation time: 1 hr 16 min 29 sec) 
Heartbeat CPU 3 instructions: 250000000 cycles: 240934343 heartbeat IPC: 1.39224 cumulative IPC: 0.869858 (Simulation time: 1 hr 16 min 56 sec) 
Finished CPU 3 instructions: 200000000 cycles: 227526122 cumulative IPC: 0.87902 (Simulation time: 1 hr 17 min 54 sec) 
Heartbeat CPU 3 instructions: 260000001 cycles: 247846166 heartbeat IPC: 1.4468 cumulative IPC: 0.887107 (Simulation time: 1 hr 19 min 1 sec) 
Heartbeat CPU 1 instructions: 300000003 cycles: 248333546 heartbeat IPC: 1.11874 cumulative IPC: 1.07914 (Simulation time: 1 hr 19 min 12 sec) 
Heartbeat CPU 0 instructions: 300000003 cycles: 248564560 heartbeat IPC: 1.0882 cumulative IPC: 1.07806 (Simulation time: 1 hr 19 min 15 sec) 
Heartbeat CPU 2 instructions: 90000002 cycles: 250532943 heartbeat IPC: 0.156818 cumulative IPC: 0.164362 (Simulation time: 1 hr 19 min 59 sec) 
Heartbeat CPU 3 instructions: 270000002 cycles: 254668852 heartbeat IPC: 1.4657 cumulative IPC: 0.903693 (Simulation time: 1 hr 21 min 29 sec) 
Heartbeat CPU 1 instructions: 310000002 cycles: 257335106 heartbeat IPC: 1.11092 cumulative IPC: 1.08032 (Simulation time: 1 hr 22 min 23 sec) 
Heartbeat CPU 0 instructions: 310000002 cycles: 257392129 heartbeat IPC: 1.13281 cumulative IPC: 1.08007 (Simulation time: 1 hr 22 min 24 sec) 
Heartbeat CPU 3 instructions: 280000000 cycles: 261413976 heartbeat IPC: 1.48255 cumulative IPC: 0.919646 (Simulation time: 1 hr 23 min 43 sec) 
Heartbeat CPU 0 instructions: 320000003 cycles: 266308111 heartbeat IPC: 1.12158 cumulative IPC: 1.08155 (Simulation time: 1 hr 25 min 25 sec) 
Heartbeat CPU 1 instructions: 320000003 cycles: 266339736 heartbeat IPC: 1.11054 cumulative IPC: 1.08141 (Simulation time: 1 hr 25 min 25 sec) 
Heartbeat CPU 3 instructions: 290000000 cycles: 268145677 heartbeat IPC: 1.48551 cumulative IPC: 0.934793 (Simulation time: 1 hr 26 min 0 sec) 
Heartbeat CPU 1 instructions: 330000000 cycles: 275131855 heartbeat IPC: 1.13738 cumulative IPC: 1.08332 (Simulation time: 1 hr 28 min 4 sec) 
Heartbeat CPU 0 instructions: 330000000 cycles: 275244759 heartbeat IPC: 1.11899 cumulative IPC: 1.08285 (Simulation time: 1 hr 28 min 6 sec) 
Heartbeat CPU 3 instructions: 300000000 cycles: 277221465 heartbeat IPC: 1.10183 cumulative IPC: 0.940612 (Simulation time: 1 hr 28 min 40 sec) 
Heartbeat CPU 1 instructions: 340000000 cycles: 284524685 heartbeat IPC: 1.06464 cumulative IPC: 1.08266 (Simulation time: 1 hr 30 min 41 sec) 
Heartbeat CPU 0 instructions: 340000000 cycles: 284704174 heartbeat IPC: 1.05715 cumulative IPC: 1.08194 (Simulation time: 1 hr 30 min 44 sec) 
Heartbeat CPU 3 instructions: 310000000 cycles: 288152997 heartbeat IPC: 0.914785 cumulative IPC: 0.939572 (Simulation time: 1 hr 31 min 42 sec) 
Heartbeat CPU 1 instructions: 350000000 cycles: 293801635 heartbeat IPC: 1.07794 cumulative IPC: 1.08251 (Simulation time: 1 hr 33 min 21 sec) 
Heartbeat CPU 0 instructions: 350000002 cycles: 294004951 heartbeat IPC: 1.07518 cumulative IPC: 1.08171 (Simulation time: 1 hr 33 min 24 sec) 
Heartbeat CPU 2 instructions: 100000000 cycles: 297634479 heartbeat IPC: 0.212307 cumulative IPC: 0.172399 (Simulation time: 1 hr 34 min 26 sec) 
Heartbeat CPU 3 instructions: 320000000 cycles: 300758230 heartbeat IPC: 0.793321 cumulative IPC: 0.933083 (Simulation time: 1 hr 35 min 22 sec) 
Heartbeat CPU 1 instructions: 360000000 cycles: 302804327 heartbeat IPC: 1.11078 cumulative IPC: 1.08339 (Simulation time: 1 hr 35 min 57 sec) 
Heartbeat CPU 0 instructions: 360000000 cycles: 302997613 heartbeat IPC: 1.11202 cumulative IPC: 1.08266 (Simulation time: 1 hr 36 min 1 sec) 
Heartbeat CPU 3 instructions: 330000000 cycles: 310163945 heartbeat IPC: 1.06318 cumulative IPC: 0.937252 (Simulation time: 1 hr 37 min 52 sec) 
Heartbeat CPU 1 instructions: 370000003 cycles: 312455828 heartbeat IPC: 1.03611 cumulative IPC: 1.08185 (Simulation time: 1 hr 38 min 32 sec) 
Heartbeat CPU 0 instructions: 370000003 cycles: 312687559 heartbeat IPC: 1.032 cumulative IPC: 1.081 (Simulation time: 1 hr 38 min 35 sec) 
Heartbeat CPU 3 instructions: 340000003 cycles: 318888220 heartbeat IPC: 1.14623 cumulative IPC: 0.943285 (Simulation time: 1 hr 40 min 20 sec) 
Heartbeat CPU 1 instructions: 380000001 cycles: 321975684 heartbeat IPC: 1.05044 cumulative IPC: 1.08087 (Simulation time: 1 hr 41 min 11 sec) 
Heartbeat CPU 0 instructions: 380000001 cycles: 322267493 heartbeat IPC: 1.04385 cumulative IPC: 1.07984 (Simulation time: 1 hr 41 min 15 sec) 
Heartbeat CPU 1 instructions: 390000002 cycles: 332324617 heartbeat IPC: 0.966283 cumulative IPC: 1.07712 (Simulation time: 1 hr 43 min 34 sec) 
Heartbeat CPU 0 instructions: 390000002 cycles: 332384307 heartbeat IPC: 0.988454 cumulative IPC: 1.07691 (Simulation time: 1 hr 43 min 35 sec) 
Heartbeat CPU 3 instructions: 350000000 cycles: 341700240 heartbeat IPC: 0.438365 cumulative IPC: 0.907848 (Simulation time: 1 hr 45 min 46 sec) 
Heartbeat CPU 0 instructions: 400000003 cycles: 342679532 heartbeat IPC: 0.971324 cumulative IPC: 1.07358 (Simulation time: 1 hr 46 min 3 sec) 
Heartbeat CPU 1 instructions: 400000003 cycles: 342792014 heartbeat IPC: 0.955347 cumulative IPC: 1.07321 (Simulation time: 1 hr 46 min 5 sec) 
Heartbeat CPU 1 instructions: 410000000 cycles: 352667407 heartbeat IPC: 1.01262 cumulative IPC: 1.07143 (Simulation time: 1 hr 48 min 18 sec) 
Heartbeat CPU 0 instructions: 410000000 cycles: 352814036 heartbeat IPC: 0.986728 cumulative IPC: 1.07096 (Simulation time: 1 hr 48 min 21 sec) 
Heartbeat CPU 3 instructions: 360000001 cycles: 356532544 heartbeat IPC: 0.674204 cumulative IPC: 0.897651 (Simulation time: 1 hr 49 min 17 sec) 
Heartbeat CPU 1 instructions: 420000000 cycles: 361999897 heartbeat IPC: 1.07153 cumulative IPC: 1.07143 (Simulation time: 1 hr 50 min 39 sec) 
Heartbeat CPU 0 instructions: 420000001 cycles: 362161062 heartbeat IPC: 1.06986 cumulative IPC: 1.07093 (Simulation time: 1 hr 50 min 42 sec) 
Heartbeat CPU 3 instructions: 370000000 cycles: 370176331 heartbeat IPC: 0.732934 cumulative IPC: 0.891294 (Simulation time: 1 hr 52 min 35 sec) 
Heartbeat CPU 1 instructions: 430000001 cycles: 371653526 heartbeat IPC: 1.03588 cumulative IPC: 1.07046 (Simulation time: 1 hr 52 min 53 sec) 
Heartbeat CPU 0 instructions: 430000001 cycles: 371808031 heartbeat IPC: 1.03659 cumulative IPC: 1.07 (Simulation time: 1 hr 52 min 55 sec) 
Heartbeat CPU 2 instructions: 110000000 cycles: 378766003 heartbeat IPC: 0.123257 cumulative IPC: 0.161389 (Simulation time: 1 hr 54 min 37 sec) 
Heartbeat CPU 1 instructions: 440000000 cycles: 381196892 heartbeat IPC: 1.04785 cumulative IPC: 1.06987 (Simulation time: 1 hr 55 min 16 sec) 
Heartbeat CPU 0 instructions: 440000000 cycles: 381346223 heartbeat IPC: 1.04842 cumulative IPC: 1.06943 (Simulation time: 1 hr 55 min 18 sec) 
Heartbeat CPU 3 instructions: 380000002 cycles: 389574860 heartbeat IPC: 0.515503 cumulative IPC: 0.871745 (Simulation time: 1 hr 57 min 17 sec) 
Heartbeat CPU 0 instructions: 450000002 cycles: 391123897 heartbeat IPC: 1.02274 cumulative IPC: 1.06821 (Simulation time: 1 hr 57 min 38 sec) 
Heartbeat CPU 1 instructions: 450000002 cycles: 391250751 heartbeat IPC: 0.994643 cumulative IPC: 1.06785 (Simulation time: 1 hr 57 min 40 sec) 
Heartbeat CPU 0 instructions: 460000000 cycles: 400759831 heartbeat IPC: 1.03778 cumulative IPC: 1.06745 (Simulation time: 2 hr 0 min 14 sec) 
Heartbeat CPU 1 instructions: 460000000 cycles: 400888501 heartbeat IPC: 1.03759 cumulative IPC: 1.06709 (Simulation time: 2 hr 0 min 16 sec) 
Heartbeat CPU 3 instructions: 390000003 cycles: 402390828 heartbeat IPC: 0.780277 cumulative IPC: 0.868706 (Simulation time: 2 hr 0 min 44 sec) 
Heartbeat CPU 0 instructions: 470000002 cycles: 410322911 heartbeat IPC: 1.04569 cumulative IPC: 1.06692 (Simulation time: 2 hr 2 min 45 sec) 
Heartbeat CPU 1 instructions: 470000002 cycles: 410581946 heartbeat IPC: 1.03163 cumulative IPC: 1.06622 (Simulation time: 2 hr 2 min 49 sec) 
Heartbeat CPU 3 instructions: 400000001 cycles: 416216263 heartbeat IPC: 0.723304 cumulative IPC: 0.863675 (Simulation time: 2 hr 4 min 19 sec) 
Heartbeat CPU 0 instructions: 480000002 cycles: 419762104 heartbeat IPC: 1.05941 cumulative IPC: 1.06674 (Simulation time: 2 hr 5 min 16 sec) 
Heartbeat CPU 1 instructions: 480000001 cycles: 420145545 heartbeat IPC: 1.04563 cumulative IPC: 1.06573 (Simulation time: 2 hr 5 min 23 sec) 
Heartbeat CPU 0 instructions: 490000000 cycles: 429657848 heartbeat IPC: 1.01054 cumulative IPC: 1.0654 (Simulation time: 2 hr 7 min 19 sec) 
Heartbeat CPU 1 instructions: 490000000 cycles: 430011005 heartbeat IPC: 1.01364 cumulative IPC: 1.06449 (Simulation time: 2 hr 7 min 25 sec) 
Heartbeat CPU 3 instructions: 410000003 cycles: 435893582 heartbeat IPC: 0.508199 cumulative IPC: 0.84699 (Simulation time: 2 hr 8 min 54 sec) 
*** Reached end of trace for Core: 0 Repeating trace: ./traces/ligra/ligra_PageRankDelta.com-lj.ungraph.gcc_6.3.0_O3.drop_3500M.length_250M.champsimtrace.xz
Heartbeat CPU 0 instructions: 500000002 cycles: 439258572 heartbeat IPC: 1.04159 cumulative IPC: 1.06486 (Simulation time: 2 hr 9 min 50 sec) 
*** Reached end of trace for Core: 1 Repeating trace: ./traces/ligra/ligra_PageRankDelta.com-lj.ungraph.gcc_6.3.0_O3.drop_3500M.length_250M.champsimtrace.xz
Heartbeat CPU 1 instructions: 500000002 cycles: 439590246 heartbeat IPC: 1.04392 cumulative IPC: 1.06402 (Simulation time: 2 hr 9 min 56 sec) 
Heartbeat CPU 0 instructions: 510000001 cycles: 448925021 heartbeat IPC: 1.03451 cumulative IPC: 1.06418 (Simulation time: 2 hr 12 min 26 sec) 
Heartbeat CPU 1 instructions: 510000001 cycles: 449076526 heartbeat IPC: 1.05415 cumulative IPC: 1.06381 (Simulation time: 2 hr 12 min 28 sec) 
Heartbeat CPU 3 instructions: 420000001 cycles: 449254867 heartbeat IPC: 0.748431 cumulative IPC: 0.843946 (Simulation time: 2 hr 12 min 30 sec) 
Heartbeat CPU 0 instructions: 520000002 cycles: 458486758 heartbeat IPC: 1.04584 cumulative IPC: 1.06378 (Simulation time: 2 hr 14 min 59 sec) 
Heartbeat CPU 1 instructions: 520000002 cycles: 458607481 heartbeat IPC: 1.04921 cumulative IPC: 1.06349 (Simulation time: 2 hr 15 min 1 sec) 
Heartbeat CPU 2 instructions: 120000000 cycles: 458967320 heartbeat IPC: 0.124686 cumulative IPC: 0.154733 (Simulation time: 2 hr 15 min 7 sec) 
Heartbeat CPU 3 instructions: 430000002 cycles: 466691416 heartbeat IPC: 0.573508 cumulative IPC: 0.833467 (Simulation time: 2 hr 16 min 57 sec) 
Heartbeat CPU 1 instructions: 530000001 cycles: 468096385 heartbeat IPC: 1.05386 cumulative IPC: 1.06329 (Simulation time: 2 hr 17 min 13 sec) 
Heartbeat CPU 0 instructions: 530000001 cycles: 468115079 heartbeat IPC: 1.0386 cumulative IPC: 1.06324 (Simulation time: 2 hr 17 min 13 sec) 
Heartbeat CPU 0 instructions: 540000000 cycles: 477593028 heartbeat IPC: 1.05508 cumulative IPC: 1.06308 (Simulation time: 2 hr 19 min 33 sec) 
Heartbeat CPU 1 instructions: 540000000 cycles: 477803130 heartbeat IPC: 1.03021 cumulative IPC: 1.06259 (Simulation time: 2 hr 19 min 36 sec) 
Heartbeat CPU 3 instructions: 440000000 cycles: 482447583 heartbeat IPC: 0.634672 cumulative IPC: 0.826743 (Simulation time: 2 hr 20 min 49 sec) 
Heartbeat CPU 1 instructions: 550000000 cycles: 486850334 heartbeat IPC: 1.10531 cumulative IPC: 1.06341 (Simulation time: 2 hr 22 min 4 sec) 
Heartbeat CPU 0 instructions: 550000000 cycles: 486850348 heartbeat IPC: 1.08023 cumulative IPC: 1.06341 (Simulation time: 2 hr 22 min 4 sec) 
Heartbeat CPU 3 instructions: 450000000 cycles: 495768367 heartbeat IPC: 0.750707 cumulative IPC: 0.824629 (Simulation time: 2 hr 24 min 36 sec) 
Heartbeat CPU 0 instructions: 560000003 cycles: 496042144 heartbeat IPC: 1.08793 cumulative IPC: 1.06388 (Simulation time: 2 hr 24 min 40 sec) 
Heartbeat CPU 1 instructions: 560000003 cycles: 496140199 heartbeat IPC: 1.07644 cumulative IPC: 1.06367 (Simulation time: 2 hr 24 min 42 sec) 
Heartbeat CPU 0 instructions: 570000003 cycles: 505455611 heartbeat IPC: 1.06231 cumulative IPC: 1.06385 (Simulation time: 2 hr 27 min 1 sec) 
Heartbeat CPU 1 instructions: 570000003 cycles: 505569749 heartbeat IPC: 1.0605 cumulative IPC: 1.06361 (Simulation time: 2 hr 27 min 3 sec) 
Heartbeat CPU 0 instructions: 580000002 cycles: 515102403 heartbeat IPC: 1.03661 cumulative IPC: 1.06333 (Simulation time: 2 hr 29 min 11 sec) 
Heartbeat CPU 1 instructions: 580000002 cycles: 515191709 heartbeat IPC: 1.03929 cumulative IPC: 1.06314 (Simulation time: 2 hr 29 min 12 sec) 
Heartbeat CPU 3 instructions: 460000003 cycles: 518124652 heartbeat IPC: 0.447302 cumulative IPC: 0.807806 (Simulation time: 2 hr 29 min 58 sec) 
Heartbeat CPU 0 instructions: 590000001 cycles: 524885675 heartbeat IPC: 1.02215 cumulative IPC: 1.06253 (Simulation time: 2 hr 31 min 35 sec) 
Heartbeat CPU 1 instructions: 590000000 cycles: 524999327 heartbeat IPC: 1.01962 cumulative IPC: 1.0623 (Simulation time: 2 hr 31 min 36 sec) 
Heartbeat CPU 0 instructions: 600000001 cycles: 535059722 heartbeat IPC: 0.982893 cumulative IPC: 1.06097 (Simulation time: 2 hr 34 min 1 sec) 
Heartbeat CPU 1 instructions: 600000001 cycles: 535171052 heartbeat IPC: 0.983118 cumulative IPC: 1.06074 (Simulation time: 2 hr 34 min 3 sec) 
Heartbeat CPU 3 instructions: 470000002 cycles: 540552408 heartbeat IPC: 0.445876 cumulative IPC: 0.792312 (Simulation time: 2 hr 35 min 25 sec) 
Heartbeat CPU 2 instructions: 130000000 cycles: 544634470 heartbeat IPC: 0.116731 cumulative IPC: 0.148567 (Simulation time: 2 hr 36 min 39 sec) 
Heartbeat CPU 0 instructions: 610000000 cycles: 545204894 heartbeat IPC: 0.98569 cumulative IPC: 1.05953 (Simulation time: 2 hr 36 min 51 sec) 
Heartbeat CPU 1 instructions: 610000000 cycles: 545274935 heartbeat IPC: 0.989718 cumulative IPC: 1.05939 (Simulation time: 2 hr 36 min 52 sec) 
Heartbeat CPU 3 instructions: 480000000 cycles: 547035028 heartbeat IPC: 1.54259 cumulative IPC: 0.801482 (Simulation time: 2 hr 37 min 25 sec) 
Heartbeat CPU 0 instructions: 620000003 cycles: 554369728 heartbeat IPC: 1.09113 cumulative IPC: 1.06006 (Simulation time: 2 hr 39 min 40 sec) 
Heartbeat CPU 1 instructions: 620000003 cycles: 554476952 heartbeat IPC: 1.08672 cumulative IPC: 1.05985 (Simulation time: 2 hr 39 min 42 sec) 
Heartbeat CPU 3 instructions: 490000000 cycles: 554989056 heartbeat IPC: 1.25722 cumulative IPC: 0.808216 (Simulation time: 2 hr 39 min 52 sec) 
Heartbeat CPU 0 instructions: 630000001 cycles: 563531713 heartbeat IPC: 1.09147 cumulative IPC: 1.06059 (Simulation time: 2 hr 42 min 20 sec) 
Heartbeat CPU 1 instructions: 630000001 cycles: 563654651 heartbeat IPC: 1.0896 cumulative IPC: 1.06035 (Simulation time: 2 hr 42 min 22 sec) 
Heartbeat CPU 3 instructions: 500000000 cycles: 563928743 heartbeat IPC: 1.11861 cumulative IPC: 0.813287 (Simulation time: 2 hr 42 min 26 sec) 
Heartbeat CPU 1 instructions: 640000003 cycles: 572854025 heartbeat IPC: 1.08703 cumulative IPC: 1.06079 (Simulation time: 2 hr 44 min 54 sec) 
Heartbeat CPU 0 instructions: 640000003 cycles: 572911032 heartbeat IPC: 1.06618 cumulative IPC: 1.06068 (Simulation time: 2 hr 44 min 55 sec) 
Heartbeat CPU 3 instructions: 510000002 cycles: 574615070 heartbeat IPC: 0.935775 cumulative IPC: 0.815633 (Simulation time: 2 hr 45 min 30 sec) 
Heartbeat CPU 3 instructions: 520000002 cycles: 580994703 heartbeat IPC: 1.56749 cumulative IPC: 0.824132 (Simulation time: 2 hr 47 min 31 sec) 
Heartbeat CPU 1 instructions: 650000003 cycles: 582344936 heartbeat IPC: 1.05364 cumulative IPC: 1.06067 (Simulation time: 2 hr 47 min 59 sec) 
Heartbeat CPU 0 instructions: 650000003 cycles: 582432986 heartbeat IPC: 1.0502 cumulative IPC: 1.06051 (Simulation time: 2 hr 48 min 1 sec) 
Heartbeat CPU 3 instructions: 530000002 cycles: 588930246 heartbeat IPC: 1.26015 cumulative IPC: 0.830179 (Simulation time: 2 hr 49 min 47 sec) 
Heartbeat CPU 1 instructions: 660000000 cycles: 591629394 heartbeat IPC: 1.07707 cumulative IPC: 1.06094 (Simulation time: 2 hr 50 min 35 sec) 
Heartbeat CPU 0 instructions: 660000000 cycles: 591719011 heartbeat IPC: 1.07689 cumulative IPC: 1.06077 (Simulation time: 2 hr 50 min 37 sec) 
Heartbeat CPU 3 instructions: 540000001 cycles: 598335597 heartbeat IPC: 1.06322 cumulative IPC: 0.833947 (Simulation time: 2 hr 52 min 31 sec) 
Heartbeat CPU 1 instructions: 670000000 cycles: 600855403 heartbeat IPC: 1.08389 cumulative IPC: 1.0613 (Simulation time: 2 hr 53 min 11 sec) 
Heartbeat CPU 0 instructions: 670000002 cycles: 600932893 heartbeat IPC: 1.08532 cumulative IPC: 1.06116 (Simulation time: 2 hr 53 min 12 sec) 
Heartbeat CPU 3 instructions: 550000000 cycles: 609631530 heartbeat IPC: 0.885274 cumulative IPC: 0.834925 (Simulation time: 2 hr 55 min 40 sec) 
Heartbeat CPU 1 instructions: 680000001 cycles: 610015696 heartbeat IPC: 1.09167 cumulative IPC: 1.06177 (Simulation time: 2 hr 55 min 46 sec) 
Heartbeat CPU 0 instructions: 680000001 cycles: 610420830 heartbeat IPC: 1.05397 cumulative IPC: 1.06105 (Simulation time: 2 hr 55 min 52 sec) 
Heartbeat CPU 2 instructions: 140000002 cycles: 615962723 heartbeat IPC: 0.140197 cumulative IPC: 0.147571 (Simulation time: 2 hr 57 min 36 sec) 
Heartbeat CPU 3 instructions: 560000001 cycles: 616377656 heartbeat IPC: 1.48233 cumulative IPC: 0.842207 (Simulation time: 2 hr 57 min 43 sec) 
Heartbeat CPU 1 instructions: 690000002 cycles: 619636058 heartbeat IPC: 1.03946 cumulative IPC: 1.06141 (Simulation time: 2 hr 58 min 34 sec) 
Heartbeat CPU 0 instructions: 690000002 cycles: 619970815 heartbeat IPC: 1.04712 cumulative IPC: 1.06082 (Simulation time: 2 hr 58 min 41 sec) 
Heartbeat CPU 3 instructions: 570000000 cycles: 624965010 heartbeat IPC: 1.1645 cumulative IPC: 0.846757 (Simulation time: 3 hr 0 min 21 sec) 
Heartbeat CPU 1 instructions: 700000000 cycles: 628854664 heartbeat IPC: 1.08476 cumulative IPC: 1.06177 (Simulation time: 3 hr 1 min 42 sec) 
Heartbeat CPU 0 instructions: 700000000 cycles: 629211103 heartbeat IPC: 1.08222 cumulative IPC: 1.06115 (Simulation time: 3 hr 1 min 50 sec) 
Heartbeat CPU 3 instructions: 580000002 cycles: 633929310 heartbeat IPC: 1.11554 cumulative IPC: 0.850661 (Simulation time: 3 hr 3 min 15 sec) 
Heartbeat CPU 1 instructions: 710000000 cycles: 637871126 heartbeat IPC: 1.10908 cumulative IPC: 1.06245 (Simulation time: 3 hr 4 min 21 sec) 
Heartbeat CPU 0 instructions: 710000000 cycles: 638496085 heartbeat IPC: 1.07701 cumulative IPC: 1.06138 (Simulation time: 3 hr 4 min 32 sec) 
Heartbeat CPU 3 instructions: 590000001 cycles: 645348491 heartbeat IPC: 0.875719 cumulative IPC: 0.851116 (Simulation time: 3 hr 6 min 33 sec) 
Heartbeat CPU 1 instructions: 720000002 cycles: 647459873 heartbeat IPC: 1.04289 cumulative IPC: 1.06215 (Simulation time: 3 hr 7 min 15 sec) 
Heartbeat CPU 0 instructions: 720000002 cycles: 648223473 heartbeat IPC: 1.02803 cumulative IPC: 1.06087 (Simulation time: 3 hr 7 min 29 sec) 
Heartbeat CPU 3 instructions: 600000001 cycles: 652262822 heartbeat IPC: 1.44627 cumulative IPC: 0.85759 (Simulation time: 3 hr 8 min 48 sec) 
Heartbeat CPU 1 instructions: 730000000 cycles: 656579574 heartbeat IPC: 1.09653 cumulative IPC: 1.06264 (Simulation time: 3 hr 10 min 8 sec) 
Heartbeat CPU 0 instructions: 730000000 cycles: 657542256 heartbeat IPC: 1.0731 cumulative IPC: 1.06105 (Simulation time: 3 hr 10 min 28 sec) 
Heartbeat CPU 3 instructions: 610000001 cycles: 661030846 heartbeat IPC: 1.14051 cumulative IPC: 0.86144 (Simulation time: 3 hr 11 min 39 sec) 
Heartbeat CPU 1 instructions: 740000002 cycles: 665543360 heartbeat IPC: 1.1156 cumulative IPC: 1.06338 (Simulation time: 3 hr 13 min 5 sec) 
Heartbeat CPU 0 instructions: 740000002 cycles: 666603094 heartbeat IPC: 1.10365 cumulative IPC: 1.06164 (Simulation time: 3 hr 13 min 19 sec) 
Heartbeat CPU 3 instructions: 620000000 cycles: 671264076 heartbeat IPC: 0.977208 cumulative IPC: 0.86325 (Simulation time: 3 hr 14 min 35 sec) 
*** Reached end of trace for Core: 1 Repeating trace: ./traces/ligra/ligra_PageRankDelta.com-lj.ungraph.gcc_6.3.0_O3.drop_3500M.length_250M.champsimtrace.xz
Heartbeat CPU 1 instructions: 750000002 cycles: 674708848 heartbeat IPC: 1.09105 cumulative IPC: 1.06376 (Simulation time: 3 hr 15 min 30 sec) 
*** Reached end of trace for Core: 0 Repeating trace: ./traces/ligra/ligra_PageRankDelta.com-lj.ungraph.gcc_6.3.0_O3.drop_3500M.length_250M.champsimtrace.xz
Heartbeat CPU 0 instructions: 750000002 cycles: 675794746 heartbeat IPC: 1.08794 cumulative IPC: 1.06201 (Simulation time: 3 hr 15 min 48 sec) 
Heartbeat CPU 3 instructions: 630000001 cycles: 683098540 heartbeat IPC: 0.84499 cumulative IPC: 0.862925 (Simulation time: 3 hr 17 min 59 sec) 
Heartbeat CPU 1 instructions: 760000002 cycles: 683927432 heartbeat IPC: 1.08477 cumulative IPC: 1.06405 (Simulation time: 3 hr 18 min 13 sec) 
Heartbeat CPU 0 instructions: 760000001 cycles: 685350165 heartbeat IPC: 1.04653 cumulative IPC: 1.06179 (Simulation time: 3 hr 18 min 36 sec) 
Heartbeat CPU 2 instructions: 150000000 cycles: 686256406 heartbeat IPC: 0.14226 cumulative IPC: 0.147013 (Simulation time: 3 hr 18 min 55 sec) 
Heartbeat CPU 3 instructions: 640000002 cycles: 689827418 heartbeat IPC: 1.48613 cumulative IPC: 0.869155 (Simulation time: 3 hr 20 min 2 sec) 
Heartbeat CPU 1 instructions: 770000000 cycles: 693279595 heartbeat IPC: 1.06927 cumulative IPC: 1.06412 (Simulation time: 3 hr 21 min 6 sec) 
Heartbeat CPU 0 instructions: 770000000 cycles: 694457696 heartbeat IPC: 1.09799 cumulative IPC: 1.06227 (Simulation time: 3 hr 21 min 27 sec) 
Heartbeat CPU 3 instructions: 650000000 cycles: 698106399 heartbeat IPC: 1.20788 cumulative IPC: 0.87327 (Simulation time: 3 hr 22 min 31 sec) 
Heartbeat CPU 1 instructions: 780000003 cycles: 702396575 heartbeat IPC: 1.09685 cumulative IPC: 1.06456 (Simulation time: 3 hr 23 min 43 sec) 
Heartbeat CPU 0 instructions: 780000003 cycles: 703441619 heartbeat IPC: 1.1131 cumulative IPC: 1.06294 (Simulation time: 3 hr 24 min 1 sec) 
Heartbeat CPU 3 instructions: 660000000 cycles: 708362737 heartbeat IPC: 0.975007 cumulative IPC: 0.874779 (Simulation time: 3 hr 25 min 17 sec) 
Heartbeat CPU 1 instructions: 790000000 cycles: 711478473 heartbeat IPC: 1.10109 cumulative IPC: 1.06504 (Simulation time: 3 hr 26 min 1 sec) 
Heartbeat CPU 0 instructions: 790000000 cycles: 712622679 heartbeat IPC: 1.0892 cumulative IPC: 1.06329 (Simulation time: 3 hr 26 min 17 sec) 
Heartbeat CPU 1 instructions: 800000003 cycles: 720542510 heartbeat IPC: 1.10326 cumulative IPC: 1.06553 (Simulation time: 3 hr 28 min 23 sec) 
Heartbeat CPU 0 instructions: 800000003 cycles: 721739132 heartbeat IPC: 1.09692 cumulative IPC: 1.06372 (Simulation time: 3 hr 28 min 42 sec) 
Heartbeat CPU 3 instructions: 670000000 cycles: 722465449 heartbeat IPC: 0.709083 cumulative IPC: 0.871468 (Simulation time: 3 hr 28 min 55 sec) 
Heartbeat CPU 1 instructions: 810000002 cycles: 729363110 heartbeat IPC: 1.13371 cumulative IPC: 1.06637 (Simulation time: 3 hr 31 min 4 sec) 
Heartbeat CPU 0 instructions: 810000002 cycles: 730598490 heartbeat IPC: 1.12875 cumulative IPC: 1.06453 (Simulation time: 3 hr 31 min 26 sec) 
Heartbeat CPU 3 instructions: 680000002 cycles: 734364008 heartbeat IPC: 0.840438 cumulative IPC: 0.870953 (Simulation time: 3 hr 32 min 35 sec) 
Heartbeat CPU 1 instructions: 820000000 cycles: 738158030 heartbeat IPC: 1.13702 cumulative IPC: 1.06723 (Simulation time: 3 hr 33 min 46 sec) 
Heartbeat CPU 0 instructions: 820000000 cycles: 739489625 heartbeat IPC: 1.12472 cumulative IPC: 1.06527 (Simulation time: 3 hr 34 min 9 sec) 
Heartbeat CPU 2 instructions: 160000003 cycles: 742986916 heartbeat IPC: 0.176272 cumulative IPC: 0.149299 (Simulation time: 3 hr 35 min 18 sec) 
Heartbeat CPU 3 instructions: 690000001 cycles: 746150671 heartbeat IPC: 0.848416 cumulative IPC: 0.870589 (Simulation time: 3 hr 36 min 13 sec) 
Heartbeat CPU 1 instructions: 830000002 cycles: 746902322 heartbeat IPC: 1.1436 cumulative IPC: 1.06815 (Simulation time: 3 hr 36 min 28 sec) 
Heartbeat CPU 0 instructions: 830000002 cycles: 748295866 heartbeat IPC: 1.13556 cumulative IPC: 1.06611 (Simulation time: 3 hr 36 min 51 sec) 
Heartbeat CPU 1 instructions: 840000000 cycles: 755679998 heartbeat IPC: 1.13925 cumulative IPC: 1.06899 (Simulation time: 3 hr 39 min 0 sec) 
Heartbeat CPU 0 instructions: 840000000 cycles: 757187942 heartbeat IPC: 1.1246 cumulative IPC: 1.06682 (Simulation time: 3 hr 39 min 25 sec) 
Heartbeat CPU 3 instructions: 700000000 cycles: 757948983 heartbeat IPC: 0.847579 cumulative IPC: 0.870223 (Simulation time: 3 hr 39 min 37 sec) 
Heartbeat CPU 1 instructions: 850000001 cycles: 764631574 heartbeat IPC: 1.11712 cumulative IPC: 1.06957 (Simulation time: 3 hr 41 min 27 sec) 
Heartbeat CPU 0 instructions: 850000001 cycles: 766186528 heartbeat IPC: 1.11129 cumulative IPC: 1.06735 (Simulation time: 3 hr 41 min 52 sec) 
Heartbeat CPU 3 instructions: 710000003 cycles: 770584214 heartbeat IPC: 0.791438 cumulative IPC: 0.868903 (Simulation time: 3 hr 43 min 13 sec) 
Heartbeat CPU 1 instructions: 860000000 cycles: 773705096 heartbeat IPC: 1.10211 cumulative IPC: 1.06996 (Simulation time: 3 hr 44 min 9 sec) 
Heartbeat CPU 0 instructions: 860000000 cycles: 775233005 heartbeat IPC: 1.1054 cumulative IPC: 1.0678 (Simulation time: 3 hr 44 min 36 sec) 
Heartbeat CPU 3 instructions: 720000001 cycles: 782393060 heartbeat IPC: 0.846823 cumulative IPC: 0.868562 (Simulation time: 3 hr 46 min 39 sec) 
Heartbeat CPU 1 instructions: 870000003 cycles: 782711959 heartbeat IPC: 1.11026 cumulative IPC: 1.07043 (Simulation time: 3 hr 46 min 44 sec) 
Heartbeat CPU 0 instructions: 870000003 cycles: 784201918 heartbeat IPC: 1.11496 cumulative IPC: 1.06835 (Simulation time: 3 hr 47 min 11 sec) 
Heartbeat CPU 1 instructions: 880000000 cycles: 791739295 heartbeat IPC: 1.10775 cumulative IPC: 1.07087 (Simulation time: 3 hr 49 min 28 sec) 
Heartbeat CPU 0 instructions: 880000000 cycles: 793244027 heartbeat IPC: 1.10594 cumulative IPC: 1.06879 (Simulation time: 3 hr 49 min 55 sec) 
Heartbeat CPU 3 instructions: 730000001 cycles: 793655318 heartbeat IPC: 0.887921 cumulative IPC: 0.868843 (Simulation time: 3 hr 50 min 1 sec) 
Heartbeat CPU 2 instructions: 170000003 cycles: 800513037 heartbeat IPC: 0.173834 cumulative IPC: 0.151099 (Simulation time: 3 hr 52 min 6 sec) 
Heartbeat CPU 1 instructions: 890000002 cycles: 800714576 heartbeat IPC: 1.11417 cumulative IPC: 1.07136 (Simulation time: 3 hr 52 min 10 sec) 
Heartbeat CPU 0 instructions: 890000002 cycles: 802229808 heartbeat IPC: 1.11287 cumulative IPC: 1.0693 (Simulation time: 3 hr 52 min 34 sec) 
Heartbeat CPU 3 instructions: 740000003 cycles: 806356751 heartbeat IPC: 0.787313 cumulative IPC: 0.867531 (Simulation time: 3 hr 53 min 42 sec) 
Heartbeat CPU 1 instructions: 900000001 cycles: 809671272 heartbeat IPC: 1.11648 cumulative IPC: 1.07187 (Simulation time: 3 hr 54 min 41 sec) 
Heartbeat CPU 0 instructions: 900000001 cycles: 811103103 heartbeat IPC: 1.12698 cumulative IPC: 1.06994 (Simulation time: 3 hr 55 min 5 sec) 
Heartbeat CPU 1 instructions: 910000000 cycles: 818486949 heartbeat IPC: 1.13434 cumulative IPC: 1.07256 (Simulation time: 3 hr 57 min 19 sec) 
Heartbeat CPU 3 instructions: 750000001 cycles: 818876900 heartbeat IPC: 0.798712 cumulative IPC: 0.866457 (Simulation time: 3 hr 57 min 25 sec) 
Heartbeat CPU 0 instructions: 910000000 cycles: 819920871 heartbeat IPC: 1.13407 cumulative IPC: 1.07064 (Simulation time: 3 hr 57 min 44 sec) 
Heartbeat CPU 1 instructions: 920000001 cycles: 827252417 heartbeat IPC: 1.14084 cumulative IPC: 1.0733 (Simulation time: 3 hr 59 min 59 sec) 
Heartbeat CPU 0 instructions: 920000001 cycles: 828668643 heartbeat IPC: 1.14315 cumulative IPC: 1.07143 (Simulation time: 4 hr 0 min 25 sec) 
Heartbeat CPU 3 instructions: 760000002 cycles: 831673228 heartbeat IPC: 0.781474 cumulative IPC: 0.865123 (Simulation time: 4 hr 1 min 21 sec) 
Heartbeat CPU 1 instructions: 930000001 cycles: 836041077 heartbeat IPC: 1.13783 cumulative IPC: 1.07399 (Simulation time: 4 hr 2 min 42 sec) 
Heartbeat CPU 0 instructions: 930000001 cycles: 837467320 heartbeat IPC: 1.13653 cumulative IPC: 1.07212 (Simulation time: 4 hr 3 min 9 sec) 
Heartbeat CPU 3 instructions: 770000000 cycles: 844225082 heartbeat IPC: 0.796695 cumulative IPC: 0.864085 (Simulation time: 4 hr 5 min 11 sec) 
Heartbeat CPU 1 instructions: 940000002 cycles: 844913419 heartbeat IPC: 1.1271 cumulative IPC: 1.07456 (Simulation time: 4 hr 5 min 23 sec) 
Heartbeat CPU 0 instructions: 940000002 cycles: 846341324 heartbeat IPC: 1.12689 cumulative IPC: 1.07271 (Simulation time: 4 hr 5 min 46 sec) 
Heartbeat CPU 2 instructions: 180000001 cycles: 847392387 heartbeat IPC: 0.213313 cumulative IPC: 0.15461 (Simulation time: 4 hr 6 min 4 sec) 
Heartbeat CPU 1 instructions: 950000000 cycles: 853774122 heartbeat IPC: 1.12858 cumulative IPC: 1.07513 (Simulation time: 4 hr 7 min 59 sec) 
Heartbeat CPU 0 instructions: 950000000 cycles: 855194521 heartbeat IPC: 1.12954 cumulative IPC: 1.07331 (Simulation time: 4 hr 8 min 25 sec) 
Heartbeat CPU 3 instructions: 780000000 cycles: 856903845 heartbeat IPC: 0.78872 cumulative IPC: 0.862948 (Simulation time: 4 hr 8 min 53 sec) 
Heartbeat CPU 1 instructions: 960000000 cycles: 862634277 heartbeat IPC: 1.12865 cumulative IPC: 1.07569 (Simulation time: 4 hr 10 min 29 sec) 
Heartbeat CPU 0 instructions: 960000000 cycles: 864063255 heartbeat IPC: 1.12756 cumulative IPC: 1.07388 (Simulation time: 4 hr 10 min 54 sec) 
Heartbeat CPU 3 instructions: 790000003 cycles: 869600884 heartbeat IPC: 0.787585 cumulative IPC: 0.861826 (Simulation time: 4 hr 12 min 32 sec) 
Heartbeat CPU 1 instructions: 970000002 cycles: 871598217 heartbeat IPC: 1.11558 cumulative IPC: 1.07611 (Simulation time: 4 hr 13 min 5 sec) 
Heartbeat CPU 0 instructions: 970000002 cycles: 873017367 heartbeat IPC: 1.11681 cumulative IPC: 1.07433 (Simulation time: 4 hr 13 min 29 sec) 
Heartbeat CPU 1 instructions: 980000000 cycles: 880430963 heartbeat IPC: 1.13215 cumulative IPC: 1.07668 (Simulation time: 4 hr 15 min 41 sec) 
Heartbeat CPU 0 instructions: 980000000 cycles: 881873766 heartbeat IPC: 1.12913 cumulative IPC: 1.07489 (Simulation time: 4 hr 16 min 4 sec) 
Heartbeat CPU 3 instructions: 800000001 cycles: 882220302 heartbeat IPC: 0.792429 cumulative IPC: 0.860814 (Simulation time: 4 hr 16 min 11 sec) 
Heartbeat CPU 1 instructions: 990000000 cycles: 889279145 heartbeat IPC: 1.13018 cumulative IPC: 1.07723 (Simulation time: 4 hr 18 min 11 sec) 
Heartbeat CPU 0 instructions: 990000000 cycles: 890704722 heartbeat IPC: 1.13238 cumulative IPC: 1.07547 (Simulation time: 4 hr 18 min 34 sec) 
Heartbeat CPU 2 instructions: 190000000 cycles: 893689842 heartbeat IPC: 0.215995 cumulative IPC: 0.157851 (Simulation time: 4 hr 19 min 26 sec) 
Heartbeat CPU 3 instructions: 810000000 cycles: 894869185 heartbeat IPC: 0.790584 cumulative IPC: 0.859803 (Simulation time: 4 hr 19 min 46 sec) 
*** Reached end of trace for Core: 1 Repeating trace: ./traces/ligra/ligra_PageRankDelta.com-lj.ungraph.gcc_6.3.0_O3.drop_3500M.length_250M.champsimtrace.xz
Heartbeat CPU 1 instructions: 1000000001 cycles: 898064669 heartbeat IPC: 1.13824 cumulative IPC: 1.07783 (Simulation time: 4 hr 20 min 34 sec) 
*** Reached end of trace for Core: 0 Repeating trace: ./traces/ligra/ligra_PageRankDelta.com-lj.ungraph.gcc_6.3.0_O3.drop_3500M.length_250M.champsimtrace.xz
Heartbeat CPU 0 instructions: 1000000001 cycles: 899511853 heartbeat IPC: 1.13544 cumulative IPC: 1.07607 (Simulation time: 4 hr 20 min 55 sec) 
Heartbeat CPU 1 instructions: 1010000003 cycles: 906835295 heartbeat IPC: 1.14017 cumulative IPC: 1.07845 (Simulation time: 4 hr 23 min 2 sec) 
Heartbeat CPU 3 instructions: 820000002 cycles: 907773084 heartbeat IPC: 0.77496 cumulative IPC: 0.858574 (Simulation time: 4 hr 23 min 19 sec) 
Heartbeat CPU 0 instructions: 1010000003 cycles: 908285366 heartbeat IPC: 1.13979 cumulative IPC: 1.07669 (Simulation time: 4 hr 23 min 29 sec) 
Heartbeat CPU 1 instructions: 1020000002 cycles: 915671810 heartbeat IPC: 1.13167 cumulative IPC: 1.07897 (Simulation time: 4 hr 25 min 38 sec) 
Heartbeat CPU 0 instructions: 1020000002 cycles: 917116784 heartbeat IPC: 1.13232 cumulative IPC: 1.07724 (Simulation time: 4 hr 26 min 1 sec) 
Heartbeat CPU 3 instructions: 830000001 cycles: 920167100 heartbeat IPC: 0.806841 cumulative IPC: 0.857864 (Simulation time: 4 hr 26 min 49 sec) 
Heartbeat CPU 1 instructions: 1030000001 cycles: 924429597 heartbeat IPC: 1.14184 cumulative IPC: 1.07958 (Simulation time: 4 hr 27 min 57 sec) 
Heartbeat CPU 0 instructions: 1030000001 cycles: 925877966 heartbeat IPC: 1.1414 cumulative IPC: 1.07786 (Simulation time: 4 hr 28 min 21 sec) 
Heartbeat CPU 1 instructions: 1040000000 cycles: 933200740 heartbeat IPC: 1.1401 cumulative IPC: 1.08016 (Simulation time: 4 hr 30 min 13 sec) 
Heartbeat CPU 3 instructions: 840000000 cycles: 933233196 heartbeat IPC: 0.765339 cumulative IPC: 0.856546 (Simulation time: 4 hr 30 min 14 sec) 
Heartbeat CPU 0 instructions: 1040000000 cycles: 934651559 heartbeat IPC: 1.13978 cumulative IPC: 1.07845 (Simulation time: 4 hr 30 min 35 sec) 
Heartbeat CPU 2 instructions: 200000003 cycles: 941513036 heartbeat IPC: 0.209104 cumulative IPC: 0.160501 (Simulation time: 4 hr 32 min 32 sec) 
Heartbeat CPU 1 instructions: 1050000003 cycles: 941963221 heartbeat IPC: 1.14123 cumulative IPC: 1.08073 (Simulation time: 4 hr 32 min 40 sec) 
Heartbeat CPU 0 instructions: 1050000003 cycles: 943431887 heartbeat IPC: 1.13891 cumulative IPC: 1.07902 (Simulation time: 4 hr 33 min 7 sec) 
Heartbeat CPU 3 instructions: 850000000 cycles: 945814847 heartbeat IPC: 0.794808 cumulative IPC: 0.855709 (Simulation time: 4 hr 33 min 53 sec) 
Heartbeat CPU 1 instructions: 1060000002 cycles: 950727915 heartbeat IPC: 1.14094 cumulative IPC: 1.0813 (Simulation time: 4 hr 35 min 14 sec) 
Heartbeat CPU 0 instructions: 1060000002 cycles: 952184562 heartbeat IPC: 1.14251 cumulative IPC: 1.07962 (Simulation time: 4 hr 35 min 39 sec) 
Heartbeat CPU 3 instructions: 860000000 cycles: 958942575 heartbeat IPC: 0.761746 cumulative IPC: 0.8544 (Simulation time: 4 hr 37 min 42 sec) 
Heartbeat CPU 1 instructions: 1070000000 cycles: 959488078 heartbeat IPC: 1.14153 cumulative IPC: 1.08186 (Simulation time: 4 hr 37 min 52 sec) 
Heartbeat CPU 0 instructions: 1070000000 cycles: 960954285 heartbeat IPC: 1.14029 cumulative IPC: 1.08018 (Simulation time: 4 hr 38 min 18 sec) 
Heartbeat CPU 1 instructions: 1080000002 cycles: 968212426 heartbeat IPC: 1.14622 cumulative IPC: 1.08245 (Simulation time: 4 hr 40 min 32 sec) 
Heartbeat CPU 0 instructions: 1080000002 cycles: 969678639 heartbeat IPC: 1.14622 cumulative IPC: 1.08078 (Simulation time: 4 hr 40 min 54 sec) 
Heartbeat CPU 3 instructions: 870000000 cycles: 971521903 heartbeat IPC: 0.794955 cumulative IPC: 0.853617 (Simulation time: 4 hr 41 min 21 sec) 
Heartbeat CPU 1 instructions: 1090000000 cycles: 976977509 heartbeat IPC: 1.14089 cumulative IPC: 1.08298 (Simulation time: 4 hr 42 min 44 sec) 
Heartbeat CPU 0 instructions: 1090000000 cycles: 978441547 heartbeat IPC: 1.14117 cumulative IPC: 1.08133 (Simulation time: 4 hr 43 min 13 sec) 
Heartbeat CPU 3 instructions: 880000000 cycles: 984412656 heartbeat IPC: 0.77575 cumulative IPC: 0.85258 (Simulation time: 4 hr 44 min 44 sec) 
Heartbeat CPU 1 instructions: 1100000000 cycles: 985743424 heartbeat IPC: 1.14078 cumulative IPC: 1.08351 (Simulation time: 4 hr 45 min 7 sec) 
Heartbeat CPU 0 instructions: 1100000000 cycles: 987217188 heartbeat IPC: 1.13952 cumulative IPC: 1.08186 (Simulation time: 4 hr 45 min 35 sec) 
Heartbeat CPU 2 instructions: 210000000 cycles: 987724007 heartbeat IPC: 0.216399 cumulative IPC: 0.163161 (Simulation time: 4 hr 45 min 45 sec) 
Heartbeat CPU 1 instructions: 1110000002 cycles: 994531788 heartbeat IPC: 1.13787 cumulative IPC: 1.08399 (Simulation time: 4 hr 47 min 52 sec) 
Heartbeat CPU 0 instructions: 1110000002 cycles: 996024257 heartbeat IPC: 1.13545 cumulative IPC: 1.08234 (Simulation time: 4 hr 48 min 20 sec) 
Heartbeat CPU 3 instructions: 890000000 cycles: 997540305 heartbeat IPC: 0.761751 cumulative IPC: 0.851364 (Simulation time: 4 hr 48 min 47 sec) 
Heartbeat CPU 1 instructions: 1120000003 cycles: 1003325253 heartbeat IPC: 1.13721 cumulative IPC: 1.08447 (Simulation time: 4 hr 50 min 33 sec) 
Heartbeat CPU 0 instructions: 1120000003 cycles: 1004786191 heartbeat IPC: 1.1413 cumulative IPC: 1.08286 (Simulation time: 4 hr 51 min 4 sec) 
Heartbeat CPU 2 instructions: 220000000 cycles: 1005127819 heartbeat IPC: 0.574587 cumulative IPC: 0.170405 (Simulation time: 4 hr 51 min 11 sec) 
Heartbeat CPU 3 instructions: 900000002 cycles: 1010118148 heartbeat IPC: 0.795049 cumulative IPC: 0.850651 (Simulation time: 4 hr 52 min 46 sec) 
Heartbeat CPU 1 instructions: 1130000001 cycles: 1012147541 heartbeat IPC: 1.13349 cumulative IPC: 1.0849 (Simulation time: 4 hr 53 min 27 sec) 
Heartbeat CPU 0 instructions: 1130000001 cycles: 1013618562 heartbeat IPC: 1.1322 cumulative IPC: 1.0833 (Simulation time: 4 hr 53 min 59 sec) 
Heartbeat CPU 2 instructions: 230000003 cycles: 1014596473 heartbeat IPC: 1.05612 cumulative IPC: 0.178809 (Simulation time: 4 hr 54 min 21 sec) 
Heartbeat CPU 1 instructions: 1140000002 cycles: 1020987059 heartbeat IPC: 1.13128 cumulative IPC: 1.08531 (Simulation time: 4 hr 56 min 26 sec) 
Heartbeat CPU 0 instructions: 1140000002 cycles: 1022460877 heartbeat IPC: 1.13093 cumulative IPC: 1.08372 (Simulation time: 4 hr 56 min 56 sec) 
Heartbeat CPU 3 instructions: 910000003 cycles: 1023667172 heartbeat IPC: 0.738061 cumulative IPC: 0.849137 (Simulation time: 4 hr 57 min 22 sec) 
Heartbeat CPU 2 instructions: 240000003 cycles: 1024151316 heartbeat IPC: 1.04659 cumulative IPC: 0.187039 (Simulation time: 4 hr 57 min 32 sec) 
Heartbeat CPU 1 instructions: 1150000003 cycles: 1029822181 heartbeat IPC: 1.13185 cumulative IPC: 1.08572 (Simulation time: 4 hr 59 min 30 sec) 
Heartbeat CPU 0 instructions: 1150000003 cycles: 1031300476 heartbeat IPC: 1.13127 cumulative IPC: 1.08413 (Simulation time: 5 hr 0 min 2 sec) 
*** Reached end of trace for Core: 2 Repeating trace: ./traces/ligra/ligra_PageRank.com-lj.ungraph.gcc_6.3.0_O3.drop_79500M.length_250M.champsimtrace.xz
Heartbeat CPU 2 instructions: 250000001 cycles: 1033827342 heartbeat IPC: 1.03348 cumulative IPC: 0.195091 (Simulation time: 5 hr 0 min 52 sec) 
Heartbeat CPU 3 instructions: 920000002 cycles: 1036823408 heartbeat IPC: 0.760096 cumulative IPC: 0.847988 (Simulation time: 5 hr 1 min 40 sec) 
Heartbeat CPU 1 instructions: 1160000000 cycles: 1039102764 heartbeat IPC: 1.07752 cumulative IPC: 1.08564 (Simulation time: 5 hr 2 min 18 sec) 
Heartbeat CPU 0 instructions: 1160000000 cycles: 1040472890 heartbeat IPC: 1.09023 cumulative IPC: 1.08419 (Simulation time: 5 hr 2 min 41 sec) 
Finished CPU 2 instructions: 200000003 cycles: 1026031025 cumulative IPC: 0.194926 (Simulation time: 5 hr 3 min 18 sec) 

ChampSim completed all CPUs

Total Simulation Statistics (not including warmup)

CPU 0 cumulative IPC: 1.08425 instructions: 1112474506 cycles: 1026031024
ITLB TOTAL     ACCESS:  184667099  HIT:  184667099  MISS:          0  HIT %:        100  MISS %:          0   MPKI: 0
ITLB LOAD      ACCESS:          0  HIT:          0  MISS:          0  HIT %:       -nan  MISS %:       -nan   MPKI: 0
ITLB RFO       ACCESS:          0  HIT:          0  MISS:          0  HIT %:       -nan  MISS %:       -nan   MPKI: 0
ITLB PREFETCH  ACCESS:          0  HIT:          0  MISS:          0  HIT %:       -nan  MISS %:       -nan   MPKI: 0
ITLB WRITEBACK ACCESS:          0  HIT:          0  MISS:          0  HIT %:       -nan  MISS %:       -nan   MPKI: 0
DTLB TOTAL     ACCESS:  187634605  HIT:  187572423  MISS:      62182  HIT %:    99.9669  MISS %:  0.0331399   MPKI: 0.0558952
DTLB LOAD      ACCESS:          0  HIT:          0  MISS:          0  HIT %:       -nan  MISS %:       -nan   MPKI: 0
DTLB RFO       ACCESS:          0  HIT:          0  MISS:          0  HIT %:       -nan  MISS %:       -nan   MPKI: 0
DTLB PREFETCH  ACCESS:          0  HIT:          0  MISS:          0  HIT %:       -nan  MISS %:       -nan   MPKI: 0
DTLB WRITEBACK ACCESS:          0  HIT:          0  MISS:          0  HIT %:       -nan  MISS %:       -nan   MPKI: 0
STLB TOTAL     ACCESS:    1986471  HIT:    1924289  MISS:      62182  HIT %:    96.8697  MISS %:    3.13027   MPKI: 0.0558952
STLB LOAD      ACCESS:          0  HIT:          0  MISS:          0  HIT %:       -nan  MISS %:       -nan   MPKI: 0
STLB RFO       ACCESS:          0  HIT:          0  MISS:          0  HIT %:       -nan  MISS %:       -nan   MPKI: 0
STLB PREFETCH  ACCESS:          0  HIT:          0  MISS:          0  HIT %:       -nan  MISS %:       -nan   MPKI: 0
STLB WRITEBACK ACCESS:          0  HIT:          0  MISS:          0  HIT %:       -nan  MISS %:       -nan   MPKI: 0
L1D TOTAL     ACCESS:  102302001  HIT:   98322797  MISS:    3979204  HIT %:    96.1103  MISS %:    3.88966   MPKI: 3.57689
L1D LOAD      ACCESS:   67549406  HIT:   67327637  MISS:     221769  HIT %:    99.6717  MISS %:   0.328306   MPKI: 0.199347
L1D RFO       ACCESS:   32984758  HIT:   30995160  MISS:    1989598  HIT %:    93.9681  MISS %:    6.03187   MPKI: 1.78844
L1D PREFETCH  ACCESS:    1767837  HIT:          0  MISS:    1767837  HIT %:          0  MISS %:        100   MPKI: 1.5891
L1D WRITEBACK ACCESS:          0  HIT:          0  MISS:          0  HIT %:       -nan  MISS %:       -nan   MPKI: 0
L1I TOTAL     ACCESS:  184667098  HIT:  184667098  MISS:          0  HIT %:        100  MISS %:          0   MPKI: 0
L1I LOAD      ACCESS:  184667098  HIT:  184667098  MISS:          0  HIT %:        100  MISS %:          0   MPKI: 0
L1I RFO       ACCESS:          0  HIT:          0  MISS:          0  HIT %:       -nan  MISS %:       -nan   MPKI: 0
L1I PREFETCH  ACCESS:          0  HIT:          0  MISS:          0  HIT %:       -nan  MISS %:       -nan   MPKI: 0
L1I WRITEBACK ACCESS:          0  HIT:          0  MISS:          0  HIT %:       -nan  MISS %:       -nan   MPKI: 0
L2C TOTAL     ACCESS:    6030984  HIT:    1884723  MISS:    4146261  HIT %:    31.2507  MISS %:    68.7493   MPKI: 3.72706
L2C LOAD      ACCESS:      31091  HIT:          0  MISS:      31091  HIT %:          0  MISS %:        100   MPKI: 0.0279476
L2C RFO       ACCESS:    1989598  HIT:          6  MISS:    1989592  HIT %: 0.000301568  MISS %:    99.9997   MPKI: 1.78844
L2C PREFETCH  ACCESS:    1958515  HIT:         10  MISS:    1958505  HIT %: 0.000510591  MISS %:    99.9995   MPKI: 1.76049
L2C WRITEBACK ACCESS:    1989598  HIT:    1830345  MISS:     159253  HIT %:    91.9957  MISS %:    8.00428   MPKI: 0.143152
PSCL5 TOTAL     ACCESS:      62182  HIT:      62182  MISS:          0  HIT %:        100  MISS %:          0   MPKI: 0
PSCL5 LOAD      ACCESS:          0  HIT:          0  MISS:          0  HIT %:       -nan  MISS %:       -nan   MPKI: 0
PSCL5 RFO       ACCESS:          0  HIT:          0  MISS:          0  HIT %:       -nan  MISS %:       -nan   MPKI: 0
PSCL5 PREFETCH  ACCESS:          0  HIT:          0  MISS:          0  HIT %:       -nan  MISS %:       -nan   MPKI: 0
PSCL5 WRITEBACK ACCESS:          0  HIT:          0  MISS:          0  HIT %:       -nan  MISS %:       -nan   MPKI: 0
PSCL4 TOTAL     ACCESS:      62182  HIT:      62182  MISS:          0  HIT %:        100  MISS %:          0   MPKI: 0
PSCL4 LOAD      ACCESS:          0  HIT:          0  MISS:          0  HIT %:       -nan  MISS %:       -nan   MPKI: 0
PSCL4 RFO       ACCESS:          0  HIT:          0  MISS:          0  HIT %:       -nan  MISS %:       -nan   MPKI: 0
PSCL4 PREFETCH  ACCESS:          0  HIT:          0  MISS:          0  HIT %:       -nan  MISS %:       -nan   MPKI: 0
PSCL4 WRITEBACK ACCESS:          0  HIT:          0  MISS:          0  HIT %:       -nan  MISS %:       -nan   MPKI: 0
PSCL3 TOTAL     ACCESS:      62182  HIT:      62182  MISS:          0  HIT %:        100  MISS %:          0   MPKI: 0
PSCL3 LOAD      ACCESS:          0  HIT:          0  MISS:          0  HIT %:       -nan  MISS %:       -nan   MPKI: 0
PSCL3 RFO       ACCESS:          0  HIT:          0  MISS:          0  HIT %:       -nan  MISS %:       -nan   MPKI: 0
PSCL3 PREFETCH  ACCESS:          0  HIT:          0  MISS:          0  HIT %:       -nan  MISS %:       -nan   MPKI: 0
PSCL3 WRITEBACK ACCESS:          0  HIT:          0  MISS:          0  HIT %:       -nan  MISS %:       -nan   MPKI: 0
PSCL2 TOTAL     ACCESS:      62182  HIT:      62160  MISS:         22  HIT %:    99.9646  MISS %:    0.03538   MPKI: 1.97757e-05
PSCL2 LOAD      ACCESS:          0  HIT:          0  MISS:          0  HIT %:       -nan  MISS %:       -nan   MPKI: 0
PSCL2 RFO       ACCESS:          0  HIT:          0  MISS:          0  HIT %:       -nan  MISS %:       -nan   MPKI: 0
PSCL2 PREFETCH  ACCESS:          0  HIT:          0  MISS:          0  HIT %:       -nan  MISS %:       -nan   MPKI: 0
PSCL2 WRITEBACK ACCESS:          0  HIT:          0  MISS:          0  HIT %:       -nan  MISS %:       -nan   MPKI: 0
=== CPU 0 L1D Prefetcher Statistics ===
[MLOP] History of tracked zone:
IIIIIIIIIIIIIIIIIIIIIIIIIIIIIIIIIIIIIIIIIIIIIIIIIIIIIIIIIIIIIIII
A11IIIIIIIIIIIIIIIIIIIIIIIIIIIIIIIIIIIIIIIIIIIIIIIIIIIIIIIIIIIII
AA11IIIIIIIIIIIIIIIIIIIIIIIIIIIIIIIIIIIIIIIIIIIIIIIIIIIIIIIIIIII
AAA11IIIIIIIIIIIIIIIIIIIIIIIIIIIIIIIIIIIIIIIIIIIIIIIIIIIIIIIIIII
AAAA11IIIIIIIIIIIIIIIIIIIIIIIIIIIIIIIIIIIIIIIIIIIIIIIIIIIIIIIIII
AAAAA11IIIIIIIIIIIIIIIIIIIIIIIIIIIIIIIIIIIIIIIIIIIIIIIIIIIIIIIII
AAAAAA11IIIIIIIIIIIIIIIIIIIIIIIIIIIIIIIIIIIIIIIIIIIIIIIIIIIIIIII
AAAAAAA11IIIIIIIIIIIIIIIIIIIIIIIIIIIIIIIIIIIIIIIIIIIIIIIIIIIIIII
AAAAAAAA11IIIIIIIIIIIIIIIIIIIIIIIIIIIIIIIIIIIIIIIIIIIIIIIIIIIIII
AAAAAAAAA11IIIIIIIIIIIIIIIIIIIIIIIIIIIIIIIIIIIIIIIIIIIIIIIIIIIII
AAAAAAAAAA11IIIIIIIIIIIIIIIIIIIIIIIIIIIIIIIIIIIIIIIIIIIIIIIIIIII
AAAAAAAAAAA11IIIIIIIIIIIIIIIIIIIIIIIIIIIIIIIIIIIIIIIIIIIIIIIIIII
AAAAAAAAAAAA11IIIIIIIIIIIIIIIIIIIIIIIIIIIIIIIIIIIIIIIIIIIIIIIIII
AAAAAAAAAAAAA11IIIIIIIIIIIIIIIIIIIIIIIIIIIIIIIIIIIIIIIIIIIIIIIII
AAAAAAAAAAAAAA11IIIIIIIIIIIIIIIIIIIIIIIIIIIIIIIIIIIIIIIIIIIIIIII
AAAAAAAAAAAAAAA11IIIIIIIIIIIIIIIIIIIIIIIIIIIIIIIIIIIIIIIIIIIIIII
AAAAAAAAAAAAAAAA11IIIIIIIIIIIIIIIIIIIIIIIIIIIIIIIIIIIIIIIIIIIIII
AAAAAAAAAAAAAAAAA11IIIIIIIIIIIIIIIIIIIIIIIIIIIIIIIIIIIIIIIIIIIII
AAAAAAAAAAAAAAAAAA11IIIIIIIIIIIIIIIIIIIIIIIIIIIIIIIIIIIIIIIIIIII
AAAAAAAAAAAAAAAAAAA11IIIIIIIIIIIIIIIIIIIIIIIIIIIIIIIIIIIIIIIIIII
AAAAAAAAAAAAAAAAAAAA11IIIIIIIIIIIIIIIIIIIIIIIIIIIIIIIIIIIIIIIIII
AAAAAAAAAAAAAAAAAAAAA11IIIIIIIIIIIIIIIIIIIIIIIIIIIIIIIIIIIIIIIII
AAAAAAAAAAAAAAAAAAAAAA11IIIIIIIIIIIIIIIIIIIIIIIIIIIIIIIIIIIIIIII
AAAAAAAAAAAAAAAAAAAAAAA11IIIIIIIIIIIIIIIIIIIIIIIIIIIIIIIIIIIIIII
AAAAAAAAAAAAAAAAAAAAAAAA11IIIIIIIIIIIIIIIIIIIIIIIIIIIIIIIIIIIIII
AAAAAAAAAAAAAAAAAAAAAAAAA11IIIIIIIIIIIIIIIIIIIIIIIIIIIIIIIIIIIII
AAAAAAAAAAAAAAAAAAAAAAAAAA11IIIIIIIIIIIIIIIIIIIIIIIIIIIIIIIIIIII
AAAAAAAAAAAAAAAAAAAAAAAAAAA11IIIIIIIIIIIIIIIIIIIIIIIIIIIIIIIIIII
AAAAAAAAAAAAAAAAAAAAAAAAAAAA11IIIIIIIIIIIIIIIIIIIIIIIIIIIIIIIIII
AAAAAAAAAAAAAAAAAAAAAAAAAAAAA11IIIIIIIIIIIIIIIIIIIIIIIIIIIIIIIII
AAAAAAAAAAAAAAAAAAAAAAAAAAAAAA11IIIIIIIIIIIIIIIIIIIIIIIIIIIIIIII
AAAAAAAAAAAAAAAAAAAAAAAAAAAAAAA11IIIIIIIIIIIIIIIIIIIIIIIIIIIIIII
AAAAAAAAAAAAAAAAAAAAAAAAAAAAAAAA11IIIIIIIIIIIIIIIIIIIIIIIIIIIIII
AAAAAAAAAAAAAAAAAAAAAAAAAAAAAAAAA11IIIIIIIIIIIIIIIIIIIIIIIIIIIII
AAAAAAAAAAAAAAAAAAAAAAAAAAAAAAAAAA11IIIIIIIIIIIIIIIIIIIIIIIIIIII
AAAAAAAAAAAAAAAAAAAAAAAAAAAAAAAAAAA11IIIIIIIIIIIIIIIIIIIIIIIIIII
AAAAAAAAAAAAAAAAAAAAAAAAAAAAAAAAAAAA11IIIIIIIIIIIIIIIIIIIIIIIIII
AAAAAAAAAAAAAAAAAAAAAAAAAAAAAAAAAAAAA11IIIIIIIIIIIIIIIIIIIIIIIII
AAAAAAAAAAAAAAAAAAAAAAAAAAAAAAAAAAAAAA11IIIIIIIIIIIIIIIIIIIIIIII
AAAAAAAAAAAAAAAAAAAAAAAAAAAAAAAAAAAAAAA11IIIIIIIIIIIIIIIIIIIIIII
AAAAAAAAAAAAAAAAAAAAAAAAAAAAAAAAAAAAAAAA11IIIIIIIIIIIIIIIIIIIIII
AAAAAAAAAAAAAAAAAAAAAAAAAAAAAAAAAAAAAAAAA11IIIIIIIIIIIIIIIIIIIII
AAAAAAAAAAAAAAAAAAAAAAAAAAAAAAAAAAAAAAAAAA11IIIIIIIIIIIIIIIIIIII
AAAAAAAAAAAAAAAAAAAAAAAAAAAAAAAAAAAAAAAAAAA11IIIIIIIIIIIIIIIIIII
AAAAAAAAAAAAAAAAAAAAAAAAAAAAAAAAAAAAAAAAAAAA11IIIIIIIIIIIIIIIIII
AAAAAAAAAAAAAAAAAAAAAAAAAAAAAAAAAAAAAAAAAAAAA11IIIIIIIIIIIIIIIII
AAAAAAAAAAAAAAAAAAAAAAAAAAAAAAAAAAAAAAAAAAAAAA11IIIIIIIIIIIIIIII
AAAAAAAAAAAAAAAAAAAAAAAAAAAAAAAAAAAAAAAAAAAAAAA11IIIIIIIIIIIIIII
AAAAAAAAAAAAAAAAAAAAAAAAAAAAAAAAAAAAAAAAAAAAAAAA11IIIIIIIIIIIIII
AAAAAAAAAAAAAAAAAAAAAAAAAAAAAAAAAAAAAAAAAAAAAAAAA11IIIIIIIIIIIII
AAAAAAAAAAAAAAAAAAAAAAAAAAAAAAAAAAAAAAAAAAAAAAAAAA11IIIIIIIIIIII
AAAAAAAAAAAAAAAAAAAAAAAAAAAAAAAAAAAAAAAAAAAAAAAAAAA11IIIIIIIIIII
AAAAAAAAAAAAAAAAAAAAAAAAAAAAAAAAAAAAAAAAAAAAAAAAAAAA11IIIIIIIIII
AAAAAAAAAAAAAAAAAAAAAAAAAAAAAAAAAAAAAAAAAAAAAAAAAAAAA11IIIIIIIII
AAAAAAAAAAAAAAAAAAAAAAAAAAAAAAAAAAAAAAAAAAAAAAAAAAAAAA11IIIIIIII
AAAAAAAAAAAAAAAAAAAAAAAAAAAAAAAAAAAAAAAAAAAAAAAAAAAAAAA11IIIIIII
AAAAAAAAAAAAAAAAAAAAAAAAAAAAAAAAAAAAAAAAAAAAAAAAAAAAAAAA11IIIIII
AAAAAAAAAAAAAAAAAAAAAAAAAAAAAAAAAAAAAAAAAAAAAAAAAAAAAAAAA11IIIII
AAAAAAAAAAAAAAAAAAAAAAAAAAAAAAAAAAAAAAAAAAAAAAAAAAAAAAAAAA11IIII
AAAAAAAAAAAAAAAAAAAAAAAAAAAAAAAAAAAAAAAAAAAAAAAAAAAAAAAAAAA11III
AAAAAAAAAAAAAAAAAAAAAAAAAAAAAAAAAAAAAAAAAAAAAAAAAAAAAAAAAAAA11II
AAAAAAAAAAAAAAAAAAAAAAAAAAAAAAAAAAAAAAAAAAAAAAAAAAAAAAAAAAAAA11I
AAAAAAAAAAAAAAAAAAAAAAAAAAAAAAAAAAAAAAAAAAAAAAAAAAAAAAAAAAAAAA11
AAAAAAAAAAAAAAAAAAAAAAAAAAAAAAAAAAAAAAAAAAAAAAAAAAAAAAAAAAAAAAA1
AAAAAAAAAAAAAAAAAAAAAAAAAAAAAAAAAAAAAAAAAAAAAAAAAAAAAAAAAAAAAAAA
A11IIIIIIIIIIIIIIIIIIIIIIIIIIIIIIIIIIIIIIIIIIIIIIIIIIIIIIIIIIIII
AA11IIIIIIIIIIIIIIIIIIIIIIIIIIIIIIIIIIIIIIIIIIIIIIIIIIIIIIIIIIII
AAA11IIIIIIIIIIIIIIIIIIIIIIIIIIIIIIIIIIIIIIIIIIIIIIIIIIIIIIIIIII
AAAA11IIIIIIIIIIIIIIIIIIIIIIIIIIIIIIIIIIIIIIIIIIIIIIIIIIIIIIIIII
AAAAA11IIIIIIIIIIIIIIIIIIIIIIIIIIIIIIIIIIIIIIIIIIIIIIIIIIIIIIIII
AAAAAA11IIIIIIIIIIIIIIIIIIIIIIIIIIIIIIIIIIIIIIIIIIIIIIIIIIIIIIII
AAAAAAA11IIIIIIIIIIIIIIIIIIIIIIIIIIIIIIIIIIIIIIIIIIIIIIIIIIIIIII
AAAAAAAA11IIIIIIIIIIIIIIIIIIIIIIIIIIIIIIIIIIIIIIIIIIIIIIIIIIIIII
AAAAAAAAA11IIIIIIIIIIIIIIIIIIIIIIIIIIIIIIIIIIIIIIIIIIIIIIIIIIIII
AAAAAAAAAA11IIIIIIIIIIIIIIIIIIIIIIIIIIIIIIIIIIIIIIIIIIIIIIIIIIII
AAAAAAAAAAA11IIIIIIIIIIIIIIIIIIIIIIIIIIIIIIIIIIIIIIIIIIIIIIIIIII
AAAAAAAAAAAA11IIIIIIIIIIIIIIIIIIIIIIIIIIIIIIIIIIIIIIIIIIIIIIIIII
AAAAAAAAAAAAA11IIIIIIIIIIIIIIIIIIIIIIIIIIIIIIIIIIIIIIIIIIIIIIIII
AAAAAAAAAAAAAA11IIIIIIIIIIIIIIIIIIIIIIIIIIIIIIIIIIIIIIIIIIIIIIII
AAAAAAAAAAAAAAA11IIIIIIIIIIIIIIIIIIIIIIIIIIIIIIIIIIIIIIIIIIIIIII
AAAAAAAAAAAAAAAA11IIIIIIIIIIIIIIIIIIIIIIIIIIIIIIIIIIIIIIIIIIIIII
AAAAAAAAAAAAAAAAA11IIIIIIIIIIIIIIIIIIIIIIIIIIIIIIIIIIIIIIIIIIIII
AAAAAAAAAAAAAAAAAA11IIIIIIIIIIIIIIIIIIIIIIIIIIIIIIIIIIIIIIIIIIII
AAAAAAAAAAAAAAAAAAA11IIIIIIIIIIIIIIIIIIIIIIIIIIIIIIIIIIIIIIIIIII
AAAAAAAAAAAAAAAAAAAA11IIIIIIIIIIIIIIIIIIIIIIIIIIIIIIIIIIIIIIIIII
AAAAAAAAAAAAAAAAAAAAA11IIIIIIIIIIIIIIIIIIIIIIIIIIIIIIIIIIIIIIIII
AAAAAAAAAAAAAAAAAAAAAA11IIIIIIIIIIIIIIIIIIIIIIIIIIIIIIIIIIIIIIII
AAAAAAAAAAAAAAAAAAAAAAA11IIIIIIIIIIIIIIIIIIIIIIIIIIIIIIIIIIIIIII
AAAAAAAAAAAAAAAAAAAAAAAA11IIIIIIIIIIIIIIIIIIIIIIIIIIIIIIIIIIIIII
AAAAAAAAAAAAAAAAAAAAAAAAA11IIIIIIIIIIIIIIIIIIIIIIIIIIIIIIIIIIIII
AAAAAAAAAAAAAAAAAAAAAAAAAA11IIIIIIIIIIIIIIIIIIIIIIIIIIIIIIIIIIII
AAAAAAAAAAAAAAAAAAAAAAAAAAA11IIIIIIIIIIIIIIIIIIIIIIIIIIIIIIIIIII
AAAAAAAAAAAAAAAAAAAAAAAAAAAA11IIIIIIIIIIIIIIIIIIIIIIIIIIIIIIIIII
AAAAAAAAAAAAAAAAAAAAAAAAAAAAA11IIIIIIIIIIIIIIIIIIIIIIIIIIIIIIIII
AAAAAAAAAAAAAAAAAAAAAAAAAAAAAA11IIIIIIIIIIIIIIIIIIIIIIIIIIIIIIII
AAAAAAAAAAAAAAAAAAAAAAAAAAAAAAA11IIIIIIIIIIIIIIIIIIIIIIIIIIIIIII
AAAAAAAAAAAAAAAAAAAAAAAAAAAAAAAA11IIIIIIIIIIIIIIIIIIIIIIIIIIIIII
AAAAAAAAAAAAAAAAAAAAAAAAAAAAAAAAA11IIIIIIIIIIIIIIIIIIIIIIIIIIIII
AAAAAAAAAAAAAAAAAAAAAAAAAAAAAAAAAA11IIIIIIIIIIIIIIIIIIIIIIIIIIII
AAAAAAAAAAAAAAAAAAAAAAAAAAAAAAAAAAA11IIIIIIIIIIIIIIIIIIIIIIIIIII
AAAAAAAAAAAAAAAAAAAAAAAAAAAAAAAAAAAA11IIIIIIIIIIIIIIIIIIIIIIIIII
AAAAAAAAAAAAAAAAAAAAAAAAAAAAAAAAAAAAA11IIIIIIIIIIIIIIIIIIIIIIIII
AAAAAAAAAAAAAAAAAAAAAAAAAAAAAAAAAAAAAA11IIIIIIIIIIIIIIIIIIIIIIII
AAAAAAAAAAAAAAAAAAAAAAAAAAAAAAAAAAAAAAA11IIIIIIIIIIIIIIIIIIIIIII
AAAAAAAAAAAAAAAAAAAAAAAAAAAAAAAAAAAAAAAA11IIIIIIIIIIIIIIIIIIIIII
AAAAAAAAAAAAAAAAAAAAAAAAAAAAAAAAAAAAAAAAA11IIIIIIIIIIIIIIIIIIIII
AAAAAAAAAAAAAAAAAAAAAAAAAAAAAAAAAAAAAAAAAA11IIIIIIIIIIIIIIIIIIII
AAAAAAAAAAAAAAAAAAAAAAAAAAAAAAAAAAAAAAAAAAA11IIIIIIIIIIIIIIIIIII
AAAAAAAAAAAAAAAAAAAAAAAAAAAAAAAAAAAAAAAAAAAA11IIIIIIIIIIIIIIIIII
AAAAAAAAAAAAAAAAAAAAAAAAAAAAAAAAAAAAAAAAAAAAA11IIIIIIIIIIIIIIIII
AAAAAAAAAAAAAAAAAAAAAAAAAAAAAAAAAAAAAAAAAAAAAA11IIIIIIIIIIIIIIII
AAAAAAAAAAAAAAAAAAAAAAAAAAAAAAAAAAAAAAAAAAAAAAA11IIIIIIIIIIIIIII
AAAAAAAAAAAAAAAAAAAAAAAAAAAAAAAAAAAAAAAAAAAAAAAA11IIIIIIIIIIIIII
AAAAAAAAAAAAAAAAAAAAAAAAAAAAAAAAAAAAAAAAAAAAAAAAA11IIIIIIIIIIIII
AAAAAAAAAAAAAAAAAAAAAAAAAAAAAAAAAAAAAAAAAAAAAAAAAA11IIIIIIIIIIII
AAAAAAAAAAAAAAAAAAAAAAAAAAAAAAAAAAAAAAAAAAAAAAAAAAA11IIIIIIIIIII
AAAAAAAAAAAAAAAAAAAAAAAAAAAAAAAAAAAAAAAAAAAAAAAAAAAA11IIIIIIIIII
AAAAAAAAAAAAAAAAAAAAAAAAAAAAAAAAAAAAAAAAAAAAAAAAAAAAA11IIIIIIIII
AAAAAAAAAAAAAAAAAAAAAAAAAAAAAAAAAAAAAAAAAAAAAAAAAAAAAA11IIIIIIII
AAAAAAAAAAAAAAAAAAAAAAAAAAAAAAAAAAAAAAAAAAAAAAAAAAAAAAA11IIIIIII
AAAAAAAAAAAAAAAAAAAAAAAAAAAAAAAAAAAAAAAAAAAAAAAAAAAAAAAA11IIIIII
AAAAAAAAAAAAAAAAAAAAAAAAAAAAAAAAAAAAAAAAAAAAAAAAAAAAAAAAA11IIIII
AAAAAAAAAAAAAAAAAAAAAAAAAAAAAAAAAAAAAAAAAAAAAAAAAAAAAAAAAA11IIII
AAAAAAAAAAAAAAAAAAAAAAAAAAAAAAAAAAAAAAAAAAAAAAAAAAAAAAAAAAA11III
AAAAAAAAAAAAAAAAAAAAAAAAAAAAAAAAAAAAAAAAAAAAAAAAAAAAAAAAAAAA11II
AAAAAAAAAAAAAAAAAAAAAAAAAAAAAAAAAAAAAAAAAAAAAAAAAAAAAAAAAAAAA11I
AAAAAAAAAAAAAAAAAAAAAAAAAAAAAAAAAAAAAAAAAAAAAAAAAAAAAAAAAAAAAA11
AAAAAAAAAAAAAAAAAAAAAAAAAAAAAAAAAAAAAAAAAAAAAAAAAAAAAAAAAAAAAAA1
AAAAAAAAAAAAAAAAAAAAAAAAAAAAAAAAAAAAAAAAAAAAAAAAAAAAAAAAAAAAAAAA
A11IIIIIIIIIIIIIIIIIIIIIIIIIIIIIIIIIIIIIIIIIIIIIIIIIIIIIIIIIIIII
AA11IIIIIIIIIIIIIIIIIIIIIIIIIIIIIIIIIIIIIIIIIIIIIIIIIIIIIIIIIIII
AAA11IIIIIIIIIIIIIIIIIIIIIIIIIIIIIIIIIIIIIIIIIIIIIIIIIIIIIIIIIII
AAAA11IIIIIIIIIIIIIIIIIIIIIIIIIIIIIIIIIIIIIIIIIIIIIIIIIIIIIIIIII
AAAAA11IIIIIIIIIIIIIIIIIIIIIIIIIIIIIIIIIIIIIIIIIIIIIIIIIIIIIIIII
AAAAAA11IIIIIIIIIIIIIIIIIIIIIIIIIIIIIIIIIIIIIIIIIIIIIIIIIIIIIIII
AAAAAAA11IIIIIIIIIIIIIIIIIIIIIIIIIIIIIIIIIIIIIIIIIIIIIIIIIIIIIII
AAAAAAAA11IIIIIIIIIIIIIIIIIIIIIIIIIIIIIIIIIIIIIIIIIIIIIIIIIIIIII
AAAAAAAAA11IIIIIIIIIIIIIIIIIIIIIIIIIIIIIIIIIIIIIIIIIIIIIIIIIIIII
AAAAAAAAAA11IIIIIIIIIIIIIIIIIIIIIIIIIIIIIIIIIIIIIIIIIIIIIIIIIIII
AAAAAAAAAAA11IIIIIIIIIIIIIIIIIIIIIIIIIIIIIIIIIIIIIIIIIIIIIIIIIII
AAAAAAAAAAAA11IIIIIIIIIIIIIIIIIIIIIIIIIIIIIIIIIIIIIIIIIIIIIIIIII
AAAAAAAAAAAAA11IIIIIIIIIIIIIIIIIIIIIIIIIIIIIIIIIIIIIIIIIIIIIIIII
AAAAAAAAAAAAAA11IIIIIIIIIIIIIIIIIIIIIIIIIIIIIIIIIIIIIIIIIIIIIIII
AAAAAAAAAAAAAAA11IIIIIIIIIIIIIIIIIIIIIIIIIIIIIIIIIIIIIIIIIIIIIII
AAAAAAAAAAAAAAAA11IIIIIIIIIIIIIIIIIIIIIIIIIIIIIIIIIIIIIIIIIIIIII
AAAAAAAAAAAAAAAAA11IIIIIIIIIIIIIIIIIIIIIIIIIIIIIIIIIIIIIIIIIIIII
AAAAAAAAAAAAAAAAAA11IIIIIIIIIIIIIIIIIIIIIIIIIIIIIIIIIIIIIIIIIIII
AAAAAAAAAAAAAAAAAAA11IIIIIIIIIIIIIIIIIIIIIIIIIIIIIIIIIIIIIIIIIII
AAAAAAAAAAAAAAAAAAAA11IIIIIIIIIIIIIIIIIIIIIIIIIIIIIIIIIIIIIIIIII
AAAAAAAAAAAAAAAAAAAAA11IIIIIIIIIIIIIIIIIIIIIIIIIIIIIIIIIIIIIIIII
AAAAAAAAAAAAAAAAAAAAAA11IIIIIIIIIIIIIIIIIIIIIIIIIIIIIIIIIIIIIIII
AAAAAAAAAAAAAAAAAAAAAAA11IIIIIIIIIIIIIIIIIIIIIIIIIIIIIIIIIIIIIII
AAAAAAAAAAAAAAAAAAAAAAAA11IIIIIIIIIIIIIIIIIIIIIIIIIIIIIIIIIIIIII
AAAAAAAAAAAAAAAAAAAAAAAAA11IIIIIIIIIIIIIIIIIIIIIIIIIIIIIIIIIIIII
AAAAAAAAAAAAAAAAAAAAAAAAAA11IIIIIIIIIIIIIIIIIIIIIIIIIIIIIIIIIIII
AAAAAAAAAAAAAAAAAAAAAAAAAAA11IIIIIIIIIIIIIIIIIIIIIIIIIIIIIIIIIII
AAAAAAAAAAAAAAAAAAAAAAAAAAAA11IIIIIIIIIIIIIIIIIIIIIIIIIIIIIIIIII
AAAAAAAAAAAAAAAAAAAAAAAAAAAAA11IIIIIIIIIIIIIIIIIIIIIIIIIIIIIIIII
AAAAAAAAAAAAAAAAAAAAAAAAAAAAAA11IIIIIIIIIIIIIIIIIIIIIIIIIIIIIIII
AAAAAAAAAAAAAAAAAAAAAAAAAAAAAAA11IIIIIIIIIIIIIIIIIIIIIIIIIIIIIII
AAAAAAAAAAAAAAAAAAAAAAAAAAAAAAAA11IIIIIIIIIIIIIIIIIIIIIIIIIIIIII
AAAAAAAAAAAAAAAAAAAAAAAAAAAAAAAAA11IIIIIIIIIIIIIIIIIIIIIIIIIIIII
AAAAAAAAAAAAAAAAAAAAAAAAAAAAAAAAAA11IIIIIIIIIIIIIIIIIIIIIIIIIIII
AAAAAAAAAAAAAAAAAAAAAAAAAAAAAAAAAAA11IIIIIIIIIIIIIIIIIIIIIIIIIII
AAAAAAAAAAAAAAAAAAAAAAAAAAAAAAAAAAAA11IIIIIIIIIIIIIIIIIIIIIIIIII
AAAAAAAAAAAAAAAAAAAAAAAAAAAAAAAAAAAAA11IIIIIIIIIIIIIIIIIIIIIIIII
AAAAAAAAAAAAAAAAAAAAAAAAAAAAAAAAAAAAAA11IIIIIIIIIIIIIIIIIIIIIIII
AAAAAAAAAAAAAAAAAAAAAAAAAAAAAAAAAAAAAAA11IIIIIIIIIIIIIIIIIIIIIII
AAAAAAAAAAAAAAAAAAAAAAAAAAAAAAAAAAAAAAAA11IIIIIIIIIIIIIIIIIIIIII
AAAAAAAAAAAAAAAAAAAAAAAAAAAAAAAAAAAAAAAAA11IIIIIIIIIIIIIIIIIIIII
AAAAAAAAAAAAAAAAAAAAAAAAAAAAAAAAAAAAAAAAAA11IIIIIIIIIIIIIIIIIIII
AAAAAAAAAAAAAAAAAAAAAAAAAAAAAAAAAAAAAAAAAAA11IIIIIIIIIIIIIIIIIII
AAAAAAAAAAAAAAAAAAAAAAAAAAAAAAAAAAAAAAAAAAAA11IIIIIIIIIIIIIIIIII
AAAAAAAAAAAAAAAAAAAAAAAAAAAAAAAAAAAAAAAAAAAAA11IIIIIIIIIIIIIIIII
AAAAAAAAAAAAAAAAAAAAAAAAAAAAAAAAAAAAAAAAAAAAAA11IIIIIIIIIIIIIIII
AAAAAAAAAAAAAAAAAAAAAAAAAAAAAAAAAAAAAAAAAAAAAAA11IIIIIIIIIIIIIII
AAAAAAAAAAAAAAAAAAAAAAAAAAAAAAAAAAAAAAAAAAAAAAAA11IIIIIIIIIIIIII
AAAAAAAAAAAAAAAAAAAAAAAAAAAAAAAAAAAAAAAAAAAAAAAAA11IIIIIIIIIIIII
AAAAAAAAAAAAAAAAAAAAAAAAAAAAAAAAAAAAAAAAAAAAAAAAAA11IIIIIIIIIIII
AAAAAAAAAAAAAAAAAAAAAAAAAAAAAAAAAAAAAAAAAAAAAAAAAAA11IIIIIIIIIII
AAAAAAAAAAAAAAAAAAAAAAAAAAAAAAAAAAAAAAAAAAAAAAAAAAAA11IIIIIIIIII
AAAAAAAAAAAAAAAAAAAAAAAAAAAAAAAAAAAAAAAAAAAAAAAAAAAAA11IIIIIIIII
AAAAAAAAAAAAAAAAAAAAAAAAAAAAAAAAAAAAAAAAAAAAAAAAAAAAAA11IIIIIIII
AAAAAAAAAAAAAAAAAAAAAAAAAAAAAAAAAAAAAAAAAAAAAAAAAAAAAAA11IIIIIII
AAAAAAAAAAAAAAAAAAAAAAAAAAAAAAAAAAAAAAAAAAAAAAAAAAAAAAAA11IIIIII
AAAAAAAAAAAAAAAAAAAAAAAAAAAAAAAAAAAAAAAAAAAAAAAAAAAAAAAAA11IIIII
AAAAAAAAAAAAAAAAAAAAAAAAAAAAAAAAAAAAAAAAAAAAAAAAAAAAAAAAAA11IIII
AAAAAAAAAAAAAAAAAAAAAAAAAAAAAAAAAAAAAAAAAAAAAAAAAAAAAAAAAAA11III
AAAAAAAAAAAAAAAAAAAAAAAAAAAAAAAAAAAAAAAAAAAAAAAAAAAAAAAAAAAA11II
AAAAAAAAAAAAAAAAAAAAAAAAAAAAAAAAAAAAAAAAAAAAAAAAAAAAAAAAAAAAA11I
AAAAAAAAAAAAAAAAAAAAAAAAAAAAAAAAAAAAAAAAAAAAAAAAAAAAAAAAAAAAAA11
AAAAAAAAAAAAAAAAAAAAAAAAAAAAAAAAAAAAAAAAAAAAAAAAAAAAAAAAAAAAAAA1
AAAAAAAAAAAAAAAAAAAAAAAAAAAAAAAAAAAAAAAAAAAAAAAAAAAAAAAAAAAAAAAA
A11IIIIIIIIIIIIIIIIIIIIIIIIIIIIIIIIIIIIIIIIIIIIIIIIIIIIIIIIIIIII
AA11IIIIIIIIIIIIIIIIIIIIIIIIIIIIIIIIIIIIIIIIIIIIIIIIIIIIIIIIIIII
AAA11IIIIIIIIIIIIIIIIIIIIIIIIIIIIIIIIIIIIIIIIIIIIIIIIIIIIIIIIIII
AAAA11IIIIIIIIIIIIIIIIIIIIIIIIIIIIIIIIIIIIIIIIIIIIIIIIIIIIIIIIII
AAAAA11IIIIIIIIIIIIIIIIIIIIIIIIIIIIIIIIIIIIIIIIIIIIIIIIIIIIIIIII
AAAAAA11IIIIIIIIIIIIIIIIIIIIIIIIIIIIIIIIIIIIIIIIIIIIIIIIIIIIIIII
AAAAAAA11IIIIIIIIIIIIIIIIIIIIIIIIIIIIIIIIIIIIIIIIIIIIIIIIIIIIIII
AAAAAAAA11IIIIIIIIIIIIIIIIIIIIIIIIIIIIIIIIIIIIIIIIIIIIIIIIIIIIII
AAAAAAAAA11IIIIIIIIIIIIIIIIIIIIIIIIIIIIIIIIIIIIIIIIIIIIIIIIIIIII
AAAAAAAAAA11IIIIIIIIIIIIIIIIIIIIIIIIIIIIIIIIIIIIIIIIIIIIIIIIIIII
AAAAAAAAAAA11IIIIIIIIIIIIIIIIIIIIIIIIIIIIIIIIIIIIIIIIIIIIIIIIIII
AAAAAAAAAAAA11IIIIIIIIIIIIIIIIIIIIIIIIIIIIIIIIIIIIIIIIIIIIIIIIII
AAAAAAAAAAAAA11IIIIIIIIIIIIIIIIIIIIIIIIIIIIIIIIIIIIIIIIIIIIIIIII
AAAAAAAAAAAAAA11IIIIIIIIIIIIIIIIIIIIIIIIIIIIIIIIIIIIIIIIIIIIIIII
AAAAAAAAAAAAAAA11IIIIIIIIIIIIIIIIIIIIIIIIIIIIIIIIIIIIIIIIIIIIIII
AAAAAAAAAAAAAAAA11IIIIIIIIIIIIIIIIIIIIIIIIIIIIIIIIIIIIIIIIIIIIII
AAAAAAAAAAAAAAAAA11IIIIIIIIIIIIIIIIIIIIIIIIIIIIIIIIIIIIIIIIIIIII
AAAAAAAAAAAAAAAAAA11IIIIIIIIIIIIIIIIIIIIIIIIIIIIIIIIIIIIIIIIIIII
AAAAAAAAAAAAAAAAAAA11IIIIIIIIIIIIIIIIIIIIIIIIIIIIIIIIIIIIIIIIIII
AAAAAAAAAAAAAAAAAAAA11IIIIIIIIIIIIIIIIIIIIIIIIIIIIIIIIIIIIIIIIII
AAAAAAAAAAAAAAAAAAAAA11IIIIIIIIIIIIIIIIIIIIIIIIIIIIIIIIIIIIIIIII
AAAAAAAAAAAAAAAAAAAAAA11IIIIIIIIIIIIIIIIIIIIIIIIIIIIIIIIIIIIIIII
AAAAAAAAAAAAAAAAAAAAAAA11IIIIIIIIIIIIIIIIIIIIIIIIIIIIIIIIIIIIIII
AAAAAAAAAAAAAAAAAAAAAAAA11IIIIIIIIIIIIIIIIIIIIIIIIIIIIIIIIIIIIII
AAAAAAAAAAAAAAAAAAAAAAAAA11IIIIIIIIIIIIIIIIIIIIIIIIIIIIIIIIIIIII
AAAAAAAAAAAAAAAAAAAAAAAAAA11IIIIIIIIIIIIIIIIIIIIIIIIIIIIIIIIIIII
AAAAAAAAAAAAAAAAAAAAAAAAAAA11IIIIIIIIIIIIIIIIIIIIIIIIIIIIIIIIIII
AAAAAAAAAAAAAAAAAAAAAAAAAAAA11IIIIIIIIIIIIIIIIIIIIIIIIIIIIIIIIII
AAAAAAAAAAAAAAAAAAAAAAAAAAAAA11IIIIIIIIIIIIIIIIIIIIIIIIIIIIIIIII
AAAAAAAAAAAAAAAAAAAAAAAAAAAAAA11IIIIIIIIIIIIIIIIIIIIIIIIIIIIIIII
AAAAAAAAAAAAAAAAAAAAAAAAAAAAAAA11IIIIIIIIIIIIIIIIIIIIIIIIIIIIIII
AAAAAAAAAAAAAAAAAAAAAAAAAAAAAAAA11IIIIIIIIIIIIIIIIIIIIIIIIIIIIII
AAAAAAAAAAAAAAAAAAAAAAAAAAAAAAAAA11IIIIIIIIIIIIIIIIIIIIIIIIIIIII
AAAAAAAAAAAAAAAAAAAAAAAAAAAAAAAAAA11IIIIIIIIIIIIIIIIIIIIIIIIIIII
AAAAAAAAAAAAAAAAAAAAAAAAAAAAAAAAAAA11IIIIIIIIIIIIIIIIIIIIIIIIIII
AAAAAAAAAAAAAAAAAAAAAAAAAAAAAAAAAAAA11IIIIIIIIIIIIIIIIIIIIIIIIII
AAAAAAAAAAAAAAAAAAAAAAAAAAAAAAAAAAAAA11IIIIIIIIIIIIIIIIIIIIIIIII
AAAAAAAAAAAAAAAAAAAAAAAAAAAAAAAAAAAAAA11IIIIIIIIIIIIIIIIIIIIIIII
AAAAAAAAAAAAAAAAAAAAAAAAAAAAAAAAAAAAAAA11IIIIIIIIIIIIIIIIIIIIIII
AAAAAAAAAAAAAAAAAAAAAAAAAAAAAAAAAAAAAAAA11IIIIIIIIIIIIIIIIIIIIII
AAAAAAAAAAAAAAAAAAAAAAAAAAAAAAAAAAAAAAAAA11IIIIIIIIIIIIIIIIIIIII
AAAAAAAAAAAAAAAAAAAAAAAAAAAAAAAAAAAAAAAAAA11IIIIIIIIIIIIIIIIIIII
AAAAAAAAAAAAAAAAAAAAAAAAAAAAAAAAAAAAAAAAAAA11IIIIIIIIIIIIIIIIIII
AAAAAAAAAAAAAAAAAAAAAAAAAAAAAAAAAAAAAAAAAAAA11IIIIIIIIIIIIIIIIII
AAAAAAAAAAAAAAAAAAAAAAAAAAAAAAAAAAAAAAAAAAAAA11IIIIIIIIIIIIIIIII
AAAAAAAAAAAAAAAAAAAAAAAAAAAAAAAAAAAAAAAAAAAAAA11IIIIIIIIIIIIIIII
AAAAAAAAAAAAAAAAAAAAAAAAAAAAAAAAAAAAAAAAAAAAAAA11IIIIIIIIIIIIIII
AAAAAAAAAAAAAAAAAAAAAAAAAAAAAAAAAAAAAAAAAAAAAAAA11IIIIIIIIIIIIII
AAAAAAAAAAAAAAAAAAAAAAAAAAAAAAAAAAAAAAAAAAAAAAAAA11IIIIIIIIIIIII
AAAAAAAAAAAAAAAAAAAAAAAAAAAAAAAAAAAAAAAAAAAAAAAAAA11IIIIIIIIIIII
AAAAAAAAAAAAAAAAAAAAAAAAAAAAAAAAAAAAAAAAAAAAAAAAAAA11IIIIIIIIIII
AAAAAAAAAAAAAAAAAAAAAAAAAAAAAAAAAAAAAAAAAAAAAAAAAAAA11IIIIIIIIII
AAAAAAAAAAAAAAAAAAAAAAAAAAAAAAAAAAAAAAAAAAAAAAAAAAAAA11IIIIIIIII
AAAAAAAAAAAAAAAAAAAAAAAAAAAAAAAAAAAAAAAAAAAAAAAAAAAAAA11IIIIIIII
AAAAAAAAAAAAAAAAAAAAAAAAAAAAAAAAAAAAAAAAAAAAAAAAAAAAAAA11IIIIIII
AAAAAAAAAAAAAAAAAAAAAAAAAAAAAAAAAAAAAAAAAAAAAAAAAAAAAAAA11IIIIII
AAAAAAAAAAAAAAAAAAAAAAAAAAAAAAAAAAAAAAAAAAAAAAAAAAAAAAAAA11IIIII
AAAAAAAAAAAAAAAAAAAAAAAAAAAAAAAAAAAAAAAAAAAAAAAAAAAAAAAAAA11IIII
AAAAAAAAAAAAAAAAAAAAAAAAAAAAAAAAAAAAAAAAAAAAAAAAAAAAAAAAAAA11III
AAAAAAAAAAAAAAAAAAAAAAAAAAAAAAAAAAAAAAAAAAAAAAAAAAAAAAAAAAAA11II
AAAAAAAAAAAAAAAAAAAAAAAAAAAAAAAAAAAAAAAAAAAAAAAAAAAAAAAAAAAAA11I
AAAAAAAAAAAAAAAAAAAAAAAAAAAAAAAAAAAAAAAAAAAAAAAAAAAAAAAAAAAAAA11
AAAAAAAAAAAAAAAAAAAAAAAAAAAAAAAAAAAAAAAAAAAAAAAAAAAAAAAAAAAAAAA1
AAAAAAAAAAAAAAAAAAAAAAAAAAAAAAAAAAAAAAAAAAAAAAAAAAAAAAAAAAAAAAAA
A11IIIIIIIIIIIIIIIIIIIIIIIIIIIIIIIIIIIIIIIIIIIIIIIIIIIIIIIIIIIII
AA11IIIIIIIIIIIIIIIIIIIIIIIIIIIIIIIIIIIIIIIIIIIIIIIIIIIIIIIIIIII
AAA11IIIIIIIIIIIIIIIIIIIIIIIIIIIIIIIIIIIIIIIIIIIIIIIIIIIIIIIIIII
AAAA11IIIIIIIIIIIIIIIIIIIIIIIIIIIIIIIIIIIIIIIIIIIIIIIIIIIIIIIIII
AAAAA11IIIIIIIIIIIIIIIIIIIIIIIIIIIIIIIIIIIIIIIIIIIIIIIIIIIIIIIII
AAAAAA11IIIIIIIIIIIIIIIIIIIIIIIIIIIIIIIIIIIIIIIIIIIIIIIIIIIIIIII
AAAAAAA11IIIIIIIIIIIIIIIIIIIIIIIIIIIIIIIIIIIIIIIIIIIIIIIIIIIIIII
AAAAAAAA11IIIIIIIIIIIIIIIIIIIIIIIIIIIIIIIIIIIIIIIIIIIIIIIIIIIIII
AAAAAAAAA11IIIIIIIIIIIIIIIIIIIIIIIIIIIIIIIIIIIIIIIIIIIIIIIIIIIII
AAAAAAAAAA11IIIIIIIIIIIIIIIIIIIIIIIIIIIIIIIIIIIIIIIIIIIIIIIIIIII
AAAAAAAAAAA11IIIIIIIIIIIIIIIIIIIIIIIIIIIIIIIIIIIIIIIIIIIIIIIIIII
AAAAAAAAAAAA11IIIIIIIIIIIIIIIIIIIIIIIIIIIIIIIIIIIIIIIIIIIIIIIIII
AAAAAAAAAAAAA11IIIIIIIIIIIIIIIIIIIIIIIIIIIIIIIIIIIIIIIIIIIIIIIII
AAAAAAAAAAAAAA11IIIIIIIIIIIIIIIIIIIIIIIIIIIIIIIIIIIIIIIIIIIIIIII
AAAAAAAAAAAAAAA11IIIIIIIIIIIIIIIIIIIIIIIIIIIIIIIIIIIIIIIIIIIIIII
AAAAAAAAAAAAAAAA11IIIIIIIIIIIIIIIIIIIIIIIIIIIIIIIIIIIIIIIIIIIIII
AAAAAAAAAAAAAAAAA11IIIIIIIIIIIIIIIIIIIIIIIIIIIIIIIIIIIIIIIIIIIII
AAAAAAAAAAAAAAAAAA11IIIIIIIIIIIIIIIIIIIIIIIIIIIIIIIIIIIIIIIIIIII
AAAAAAAAAAAAAAAAAAA11IIIIIIIIIIIIIIIIIIIIIIIIIIIIIIIIIIIIIIIIIII
AAAAAAAAAAAAAAAAAAAA11IIIIIIIIIIIIIIIIIIIIIIIIIIIIIIIIIIIIIIIIII
AAAAAAAAAAAAAAAAAAAAA11IIIIIIIIIIIIIIIIIIIIIIIIIIIIIIIIIIIIIIIII
AAAAAAAAAAAAAAAAAAAAAA11IIIIIIIIIIIIIIIIIIIIIIIIIIIIIIIIIIIIIIII
AAAAAAAAAAAAAAAAAAAAAAA11IIIIIIIIIIIIIIIIIIIIIIIIIIIIIIIIIIIIIII
AAAAAAAAAAAAAAAAAAAAAAAA11IIIIIIIIIIIIIIIIIIIIIIIIIIIIIIIIIIIIII
AAAAAAAAAAAAAAAAAAAAAAAAA11IIIIIIIIIIIIIIIIIIIIIIIIIIIIIIIIIIIII
AAAAAAAAAAAAAAAAAAAAAAAAAA11IIIIIIIIIIIIIIIIIIIIIIIIIIIIIIIIIIII
AAAAAAAAAAAAAAAAAAAAAAAAAAA11IIIIIIIIIIIIIIIIIIIIIIIIIIIIIIIIIII
AAAAAAAAAAAAAAAAAAAAAAAAAAAA11IIIIIIIIIIIIIIIIIIIIIIIIIIIIIIIIII
AAAAAAAAAAAAAAAAAAAAAAAAAAAAA11IIIIIIIIIIIIIIIIIIIIIIIIIIIIIIIII
AAAAAAAAAAAAAAAAAAAAAAAAAAAAAA11IIIIIIIIIIIIIIIIIIIIIIIIIIIIIIII
AAAAAAAAAAAAAAAAAAAAAAAAAAAAAAA11IIIIIIIIIIIIIIIIIIIIIIIIIIIIIII
AAAAAAAAAAAAAAAAAAAAAAAAAAAAAAAA11IIIIIIIIIIIIIIIIIIIIIIIIIIIIII
AAAAAAAAAAAAAAAAAAAAAAAAAAAAAAAAA11IIIIIIIIIIIIIIIIIIIIIIIIIIIII
AAAAAAAAAAAAAAAAAAAAAAAAAAAAAAAAAA11IIIIIIIIIIIIIIIIIIIIIIIIIIII
AAAAAAAAAAAAAAAAAAAAAAAAAAAAAAAAAAA11IIIIIIIIIIIIIIIIIIIIIIIIIII
AAAAAAAAAAAAAAAAAAAAAAAAAAAAAAAAAAAA11IIIIIIIIIIIIIIIIIIIIIIIIII
AAAAAAAAAAAAAAAAAAAAAAAAAAAAAAAAAAAAA11IIIIIIIIIIIIIIIIIIIIIIIII
AAAAAAAAAAAAAAAAAAAAAAAAAAAAAAAAAAAAAA11IIIIIIIIIIIIIIIIIIIIIIII
AAAAAAAAAAAAAAAAAAAAAAAAAAAAAAAAAAAAAAA11IIIIIIIIIIIIIIIIIIIIIII
AAAAAAAAAAAAAAAAAAAAAAAAAAAAAAAAAAAAAAAA11IIIIIIIIIIIIIIIIIIIIII
AAAAAAAAAAAAAAAAAAAAAAAAAAAAAAAAAAAAAAAAA11IIIIIIIIIIIIIIIIIIIII
AAAAAAAAAAAAAAAAAAAAAAAAAAAAAAAAAAAAAAAAAA11IIIIIIIIIIIIIIIIIIII
AAAAAAAAAAAAAAAAAAAAAAAAAAAAAAAAAAAAAAAAAAA11IIIIIIIIIIIIIIIIIII
AAAAAAAAAAAAAAAAAAAAAAAAAAAAAAAAAAAAAAAAAAAA11IIIIIIIIIIIIIIIIII
AAAAAAAAAAAAAAAAAAAAAAAAAAAAAAAAAAAAAAAAAAAAA11IIIIIIIIIIIIIIIII
[...]
AAAAAAAAAAAAAAAAAAAAAAAAAAAAAAAAAAAAAAAAAAAAAAAAAAAA111111111111
AAAAAAAAAAAAAAAAAAAAAAAAAAAAAAAAAAAAAAAAAAAAAAAAAAAAA11111111111
AAAAAAAAAAAAAAAAAAAAAAAAAAAAAAAAAAAAAAAAAAAAAAAAAAAAAA1111111111
AAAAAAAAAAAAAAAAAAAAAAAAAAAAAAAAAAAAAAAAAAAAAAAAAAAAAAA111111111
AAAAAAAAAAAAAAAAAAAAAAAAAAAAAAAAAAAAAAAAAAAAAAAAAAAAAAAA11111111
AAAAAAAAAAAAAAAAAAAAAAAAAAAAAAAAAAAAAAAAAAAAAAAAAAAAAAAAA1111111
AAAAAAAAAAAAAAAAAAAAAAAAAAAAAAAAAAAAAAAAAAAAAAAAAAAAAAAAAA111111
AAAAAAAAAAAAAAAAAAAAAAAAAAAAAAAAAAAAAAAAAAAAAAAAAAAAAAAAAAA11111
AAAAAAAAAAAAAAAAAAAAAAAAAAAAAAAAAAAAAAAAAAAAAAAAAAAAAAAAAAAA1111
AAAAAAAAAAAAAAAAAAAAAAAAAAAAAAAAAAAAAAAAAAAAAAAAAAAAAAAAAAAAA111
AAAAAAAAAAAAAAAAAAAAAAAAAAAAAAAAAAAAAAAAAAAAAAAAAAAAAAAAAAAAAA11
AAAAAAAAAAAAAAAAAAAAAAAAAAAAAAAAAAAAAAAAAAAAAAAAAAAAAAAAAAAAAAA1
AAAAAAAAAAAAAAAAAAAAAAAAAAAAAAAAAAAAAAAAAAAAAAAAAAAAAAAAAAAAAAAA
AIIIIIIIIIIIIIIIIIIIIIIIIIIIIIIIIIIIIIIIIIIIIIIIIIIIIIIIIIIIIIII
A1I111IIIIIIIIIIIIIIIIIIIIIIIIIIIIIIIIIIIIIIIIIIIIIIIIIIIIIIIIII
AAI111IIIIIIIIIIIIIIIIIIIIIIIIIIIIIIIIIIIIIIIIIIIIIIIIIIIIIIIIII
AA11111II1111IIIIIIIIIIIIIIIIIIIIIIIIIIIIIIIIIIIIIIIIIIIIIIIIIII
AAA1111II1111IIIIIIIIIIIIIIIIIIIIIIIIIIIIIIIIIIIIIIIIIIIIIIIIIII
AAA11111I11111IIIIIIIIIIIIIIIIIIIIIIIIIIIIIIIIIIIIIIIIIIIIIIIIII
AAAA1111I11111IIIIIIIIIIIIIIIIIIIIIIIIIIIIIIIIIIIIIIIIIIIIIIIIII
AAAA11111111111IIIIIIIIIIIIIIIIIIIIIIIIIIIIIIIIIIIIIIIIIIIIIIIII
AAAAA1111111111IIIIIIIIIIIIIIIIIIIIIIIIIIIIIIIIIIIIIIIIIIIIIIIII
AAAAAA11111111111IIIIIIIIIIIIIIIIIIIIIIIIIIIIIIIIIIIIIIIIIIIIIII
AAAAAAA1111111111IIIIIIIIIIIIIIIIIIIIIIIIIIIIIIIIIIIIIIIIIIIIIII
AAAAAAA11111111111IIIIIIIIIIIIIIIIIIIIIIIIIIIIIIIIIIIIIIIIIIIIII
AAAAAAAA1111111111IIIIIIIIIIIIIIIIIIIIIIIIIIIIIIIIIIIIIIIIIIIIII
AAAAAAAA11111111111IIIIIIIIIIIIIIIIIIIIIIIIIIIIIIIIIIIIIIIIIIIII
AAAAAAAAA1111111111IIIIIIIIIIIIIIIIIIIIIIIIIIIIIIIIIIIIIIIIIIIII
AAAAAAAAAA11111111111IIIIIIIIIIIIIIIIIIIIIIIIIIIIIIIIIIIIIIIIIII
AAAAAAAAAAA1111111111IIIIIIIIIIIIIIIIIIIIIIIIIIIIIIIIIIIIIIIIIII
AAAAAAAAAAAA111111111IIIIIIIIIIIIIIIIIIIIIIIIIIIIIIIIIIIIIIIIIII
AAAAAAAAAAAAA11111111IIIIIIIIIIIIIIIIIIIIIIIIIIIIIIIIIIIIIIIIIII
AAAAAAAAAAAAAA1111111IIIIIIIIIIIIIIIIIIIIIIIIIIIIIIIIIIIIIIIIIII
AAAAAAAAAAAAAAA111111IIIIIIIIIIIIIIIIIIIIIIIIIIIIIIIIIIIIIIIIIII
AAAAAAAAAAAAAAAA11111IIIIIIIIIIIIIIIIIIIIIIIIIIIIIIIIIIIIIIIIIII
AAAAAAAAAAAAAAAAA1111IIIIIIIIIIIIIIIIIIIIIIIIIIIIIIIIIIIIIIIIIII
AAAAAAAAAAAAAAAAAA1111IIIIIIIIIIIIIIIIIIIIIIIIIIIIIIIIIIIIIIIIII
AAAAAAAAAAAAAAAAAA11111IIIIIIIIIIIIIIIIIIIIIIIIIIIIIIIIIIIIIIIII
AAAAAAAAAAAAAAAAAAA1111IIIIIIIIIIIIIIIIIIIIIIIIIIIIIIIIIIIIIIIII
AAAAAAAAAAAAAAAAAAAA111IIIIIIIIIIIIIIIIIIIIIIIIIIIIIIIIIIIIIIIII
AAAAAAAAAAAAAAAAAAAA1111IIIIIIIIIIIIIIIIIIIIIIIIIIIIIIIIIIIIIIII
AAAAAAAAAAAAAAAAAAAA11111II111IIIIIIIIIIIIIIIIIIIIIIIIIIIIIIIIII
AAAAAAAAAAAAAAAAAAAAA1111II111IIIIIIIIIIIIIIIIIIIIIIIIIIIIIIIIII
AAAAAAAAAAAAAAAAAAAAAA111II111IIIIIIIIIIIIIIIIIIIIIIIIIIIIIIIIII
AAAAAAAAAAAAAAAAAAAAAAA11II111IIIIIIIIIIIIIIIIIIIIIIIIIIIIIIIIII
AAAAAAAAAAAAAAAAAAAAAAA111I111IIIIIIIIIIIIIIIIIIIIIIIIIIIIIIIIII
AAAAAAAAAAAAAAAAAAAAAAA11111111111IIIIIIIIIIIIIIIIIIIIIIIIIIIIII
AAAAAAAAAAAAAAAAAAAAAAAA1111111111IIIIIIIIIIIIIIIIIIIIIIIIIIIIII
AAAAAAAAAAAAAAAAAAAAAAAAA111111111IIIIIIIIIIIIIIIIIIIIIIIIIIIIII
AAAAAAAAAAAAAAAAAAAAAAAAA1111111111IIIIIIIIIIIIIIIIIIIIIIIIIIIII
AAAAAAAAAAAAAAAAAAAAAAAAAA111111111IIIIIIIIIIIIIIIIIIIIIIIIIIIII
AAAAAAAAAAAAAAAAAAAAAAAAAAA11111111IIIIIIIIIIIIIIIIIIIIIIIIIIIII
AAAAAAAAAAAAAAAAAAAAAAAAAAA111111111IIIIIIIIIIIIIIIIIIIIIIIIIIII
AAAAAAAAAAAAAAAAAAAAAAAAAAA1111111111IIIIIIIIIIIIIIIIIIIIIIIIIII
AAAAAAAAAAAAAAAAAAAAAAAAAAAA111111111IIIIIIIIIIIIIIIIIIIIIIIIIII
AAAAAAAAAAAAAAAAAAAAAAAAAAAAA11111111IIIIIIIIIIIIIIIIIIIIIIIIIII
AAAAAAAAAAAAAAAAAAAAAAAAAAAAA11111111111IIIIIIIIIIIIIIIIIIIIIIII
AAAAAAAAAAAAAAAAAAAAAAAAAAAAAA1111111111IIIIIIIIIIIIIIIIIIIIIIII
AAAAAAAAAAAAAAAAAAAAAAAAAAAAAAA111111111IIIIIIIIIIIIIIIIIIIIIIII
AAAAAAAAAAAAAAAAAAAAAAAAAAAAAAAA111111111IIIIIIIIIIIIIIIIIIIIIII
AAAAAAAAAAAAAAAAAAAAAAAAAAAAAAAA1111111111IIIIIIIIIIIIIIIIIIIIII
AAAAAAAAAAAAAAAAAAAAAAAAAAAAAAAA11111111111IIIIIIIIIIIIIIIIIIIII
AAAAAAAAAAAAAAAAAAAAAAAAAAAAAAAAA1111111111IIIIIIIIIIIIIIIIIIIII
AAAAAAAAAAAAAAAAAAAAAAAAAAAAAAAAAA111111111IIIIIIIIIIIIIIIIIIIII
AAAAAAAAAAAAAAAAAAAAAAAAAAAAAAAAAAA11111111IIIIIIIIIIIIIIIIIIIII
AAAAAAAAAAAAAAAAAAAAAAAAAAAAAAAAAAA11111111111IIIIIIIIIIIIIIIIII
AAAAAAAAAAAAAAAAAAAAAAAAAAAAAAAAAAAA1111111111IIIIIIIIIIIIIIIIII
AAAAAAAAAAAAAAAAAAAAAAAAAAAAAAAAAAAA11111111111IIIIIIIIIIIIIIIII
AAAAAAAAAAAAAAAAAAAAAAAAAAAAAAAAAAAAA1111111111IIIIIIIIIIIIIIIII
AAAAAAAAAAAAAAAAAAAAAAAAAAAAAAAAAAAAAA111111111IIIIIIIIIIIIIIIII
AAAAAAAAAAAAAAAAAAAAAAAAAAAAAAAAAAAAAAA11111111IIIIIIIIIIIIIIIII
AAAAAAAAAAAAAAAAAAAAAAAAAAAAAAAAAAAAAAAA1111111IIIIIIIIIIIIIIIII
AAAAAAAAAAAAAAAAAAAAAAAAAAAAAAAAAAAAAAAA11111111IIIIIIIIIIIIIIII
AAAAAAAAAAAAAAAAAAAAAAAAAAAAAAAAAAAAAAAAA1111111IIIIIIIIIIIIIIII
AAAAAAAAAAAAAAAAAAAAAAAAAAAAAAAAAAAAAAAAA11111111111IIIIIIIIIIII
AAAAAAAAAAAAAAAAAAAAAAAAAAAAAAAAAAAAAAAAAA1111111111IIIIIIIIIIII
AAAAAAAAAAAAAAAAAAAAAAAAAAAAAAAAAAAAAAAAAAA111111111IIIIIIIIIIII
AAAAAAAAAAAAAAAAAAAAAAAAAAAAAAAAAAAAAAAAAAA1111111111IIIIIIIIIII
AAAAAAAAAAAAAAAAAAAAAAAAAAAAAAAAAAAAAAAAAAAA111111111IIIIIIIIIII
AAAAAAAAAAAAAAAAAAAAAAAAAAAAAAAAAAAAAAAAAAAA1111111111IIIIIIIIII
AAAAAAAAAAAAAAAAAAAAAAAAAAAAAAAAAAAAAAAAAAAA11111111111IIIIIIIII
AAAAAAAAAAAAAAAAAAAAAAAAAAAAAAAAAAAAAAAAAAAAA1111111111IIIIIIIII
AAAAAAAAAAAAAAAAAAAAAAAAAAAAAAAAAAAAAAAAAAAAAA111111111IIIIIIIII
AAAAAAAAAAAAAAAAAAAAAAAAAAAAAAAAAAAAAAAAAAAAAA1111111111IIIIIIII
AAAAAAAAAAAAAAAAAAAAAAAAAAAAAAAAAAAAAAAAAAAAAAA111111111IIIIIIII
AAAAAAAAAAAAAAAAAAAAAAAAAAAAAAAAAAAAAAAAAAAAAAAA11111111111IIIII
AAAAAAAAAAAAAAAAAAAAAAAAAAAAAAAAAAAAAAAAAAAAAAAAA1111111111IIIII
AAAAAAAAAAAAAAAAAAAAAAAAAAAAAAAAAAAAAAAAAAAAAAAAAA111111111IIIII
AAAAAAAAAAAAAAAAAAAAAAAAAAAAAAAAAAAAAAAAAAAAAAAAAA1111111111IIII
AAAAAAAAAAAAAAAAAAAAAAAAAAAAAAAAAAAAAAAAAAAAAAAAAAA111111111IIII
AAAAAAAAAAAAAAAAAAAAAAAAAAAAAAAAAAAAAAAAAAAAAAAAAAA11111111111II
AAAAAAAAAAAAAAAAAAAAAAAAAAAAAAAAAAAAAAAAAAAAAAAAAAAA11111111111I
AAAAAAAAAAAAAAAAAAAAAAAAAAAAAAAAAAAAAAAAAAAAAAAAAAAAA1111111111I
AAAAAAAAAAAAAAAAAAAAAAAAAAAAAAAAAAAAAAAAAAAAAAAAAAAAA11111111111
AAAAAAAAAAAAAAAAAAAAAAAAAAAAAAAAAAAAAAAAAAAAAAAAAAAAAA1111111111
AAAAAAAAAAAAAAAAAAAAAAAAAAAAAAAAAAAAAAAAAAAAAAAAAAAAAAA111111111
AAAAAAAAAAAAAAAAAAAAAAAAAAAAAAAAAAAAAAAAAAAAAAAAAAAAAAAA11111111
AAAAAAAAAAAAAAAAAAAAAAAAAAAAAAAAAAAAAAAAAAAAAAAAAAAAAAAAA1111111
AAAAAAAAAAAAAAAAAAAAAAAAAAAAAAAAAAAAAAAAAAAAAAAAAAAAAAAAAA111111
AAAAAAAAAAAAAAAAAAAAAAAAAAAAAAAAAAAAAAAAAAAAAAAAAAAAAAAAAAA11111
AAAAAAAAAAAAAAAAAAAAAAAAAAAAAAAAAAAAAAAAAAAAAAAAAAAAAAAAAAAA1111
AAAAAAAAAAAAAAAAAAAAAAAAAAAAAAAAAAAAAAAAAAAAAAAAAAAAAAAAAAAAA111
AAAAAAAAAAAAAAAAAAAAAAAAAAAAAAAAAAAAAAAAAAAAAAAAAAAAAAAAAAAAAA11
AAAAAAAAAAAAAAAAAAAAAAAAAAAAAAAAAAAAAAAAAAAAAAAAAAAAAAAAAAAAAAA1
AAAAAAAAAAAAAAAAAAAAAAAAAAAAAAAAAAAAAAAAAAAAAAAAAAAAAAAAAAAAAAAA
IIIIIIIIIIAIIIIIIIIIIIIIIIIIIII1IIIIIIIIIIIIIIIIIIII2IIIIIIIIIII
IIIIAIIIIIAIIIIIIIIIIIIII1IIIII1IIIIIIIIIIIIII2IIIII2IIIIIIIIIII
IIIIAIIIIIAIIIIIIIIIAIIII1IIIII1IIIIIIIII1IIII2IIIII2IIIIIIIII2I
IIIIAIIIIIAIIIIAIIIIAIIII1IIIII1IIII1IIII1IIII2IIIII2IIII2IIII2I
IIIIAIIIIIAIIIIAIIIIAIIIIAIIIII1IIII1IIII1IIII2IIIII2IIII2IIII2I
IIIIAIIIIIAIIIIAIIIIAIIIIAIIIIIAIIII1IIII1IIII2IIIII2IIII2IIII2I
IIIIAIIIIIAIIIIAIIIIAIIIIAIIIIIAIIII1IIIIAIIII2IIIII2IIII2IIII2I
IIIIAIIIIIAIIIIAIIIIAIIIIAIIIIIAIIIIAIIIIAIIII2IIIII2IIII2IIII2I
IIIIAIIIIIAIIIIAIIIIAIIIIAIIIIIAIIIIAIIIIAIIII2IIIIIAIIII2IIII2I
IIIIAIIIIIAIIIIAIIIIAIIIIAIIIIIAIIIIAIIIIAIIIIAIIIIIAIIII2IIII2I
IIIIAIIIIIAIIIIAIIIIAIIIIAIIIIIAIIIIAIIIIAIIIIAIIIIIAIIIIAIIII2I
IIIIAIIIIIAIIIIAIIIIAIIIIAIIIIIAIIIIAIIIIAIIIIAIIIIIAIIIIAIIIIAI
III1AIIIIIAIIIIAIIIIAIII1AIIIIIAIIIIAIIIIAIIIIAIIIIIAIIIIAIIIIAI
III1AIII1AAIIIIAIIIIAIII1AIII1IAIIIIAIIIIAIIIIAIIIIIAIIIIAIIIIAI
III1AIII1AAIIIIAII1AAIII1AIII1IAIIIIAII1IAIIIIAIIIIIAIIIIAIIIIAI
III1AIII1AAIIIAAII1AAIII1AIII1IAIIIIAII1IAIIIIAIIIIIAIIIIAIIIIAI
III1AIII1AAIIIAAII1AAIII1AIII1AAIIIIAII1IAIIIIAIIIIIAIIIIAIIIIAI
III1AIII1AAIIIAAII1AAIII1AIII1AAIIIIAII1AAIIIIAIIIIIAIIIIAIIIIAI
III1AIII1AAIIIAAII1AAIII1AIII1AAIIIAAII1AAIIIIAIIIIIAIIIIAIIIIAI
III1AIII1AAIIIAAII1AAIII1AIII1AAIIIAAII1AAIIIIAIIIIIAIIIAAIIIIAI
III1AIII1AAIIIAAII1AAIII1AIII1AAIIIAAII1AAIIIIAIIIIAAIIIAAIIIIAI
III1AIII1AAIIIAAII1AAIII1AIII1AAIIIAAII1AAIIIIAIIIIAAIIIAAIIIAAI
A111IIIIIII11111IIIIIIIIIIIIIIIIIIIIIIIIIIIIIIIIIIIIIIIIIIIIIIII
AA11IIIIIII11111IIIIIIIIIIIIIIIIIIIIIIIIIIIIIIIIIIIIIIIIIIIIIIII
AA111IIIIII111111IIIIIIIIIIIIIIIIIIIIIIIIIIIIIIIIIIIIIIIIIIIIIII
AAA11IIIIII111111IIIIIIIIIIIIIIIIIIIIIIIIIIIIIIIIIIIIIIIIIIIIIII
AAAA1IIIIII111111IIIIIIIIIIIIIIIIIIIIIIIIIIIIIIIIIIIIIIIIIIIIIII
AAAA111IIII11111111IIIIIIIIIIIIIIIIIIIIIIIIIIIIIIIIIIIIIIIIIIIII
AAAAA11IIII11111111IIIIIIIIIIIIIIIIIIIIIIIIIIIIIIIIIIIIIIIIIIIII
AAAAAA1IIII11111111IIIIIIIIIIIIIIIIIIIIIIIIIIIIIIIIIIIIIIIIIIIII
AAAAAAAIIII11111111IIIIIIIIIIIIIIIIIIIIIIIIIIIIIIIIIIIIIIIIIIIII
AAAAAAAAIII11111111IIIIIIIIIIIIIIIIIIIIIIIIIIIIIIIIIIIIIIIIIIIII
AAAAAAAA111111111111111IIIIIIIIIIIIIIIIIIIIIIIIIIIIIIIIIIIIIIIII
AAAAAAAAA11111111111111IIIIIIIIIIIIIIIIIIIIIIIIIIIIIIIIIIIIIIIII
AAAAAAAAAA1111111111111IIIIIIIIIIIIIIIIIIIIIIIIIIIIIIIIIIIIIIIII
AAAAAAAAAAA111111111111111IIIIIIIIIIIIIIIIIIIIIIIIIIIIIIIIIIIIII
AAAAAAAAAAAA11111111111111IIIIIIIIIIIIIIIIIIIIIIIIIIIIIIIIIIIIII
AAAAAAAAAAAAA1111111111111IIIIIIIIIIIIIIIIIIIIIIIIIIIIIIIIIIIIII
AAAAAAAAAAAAA111111111111111IIIIIIIIIIIIIIIIIIIIIIIIIIIIIIIIIIII
AAAAAAAAAAAAAA111111111111111IIIIIIIIIIIIIIIIIIIIIIIIIIIIIIIIIII
AAAAAAAAAAAAAAA11111111111111IIIIIIIIIIIIIIIIIIIIIIIIIIIIIIIIIII
AAAAAAAAAAAAAAAA111111111111111IIIIIIIIIIIIIIIIIIIIIIIIIIIIIIIII
AAAAAAAAAAAAAAAAA111111111111111IIIIIIIIIIIIIIIIIIIIIIIIIIIIIIII
AAAAAAAAAAAAAAAAAA11111111111111IIIIIIIIIIIIIIIIIIIIIIIIIIIIIIII
AAAAAAAAAAAAAAAAAAA1111111111111IIIIIIIIIIIIIIIIIIIIIIIIIIIIIIII
AAAAAAAAAAAAAAAAAAAA111111111111IIIIIIIIIIIIIIIIIIIIIIIIIIIIIIII
AAAAAAAAAAAAAAAAAAAAA11111111111IIIIIIIIIIIIIIIIIIIIIIIIIIIIIIII
AAAAAAAAAAAAAAAAAAAAAA1111111111IIIIIIIIIIIIIIIIIIIIIIIIIIIIIIII
AAAAAAAAAAAAAAAAAAAAAAA111111111IIIIIIIIIIIIIIIIIIIIIIIIIIIIIIII
AAAAAAAAAAAAAAAAAAAAAAAA11111111IIIIIIIIIIIIIIIIIIIIIIIIIIIIIIII
AAAAAAAAAAAAAAAAAAAAAAAAA1111111IIIIIIIIIIIIIIIIIIIIIIIIIIIIIIII
AAAAAAAAAAAAAAAAAAAAAAAAAA111111IIIIIIIIIIIIIIIIIIIIIIIIIIIIIIII
AAAAAAAAAAAAAAAAAAAAAAAAAAA11111IIIIIIIIIIIIIIIIIIIIIIIIIIIIIIII
AAAAAAAAAAAAAAAAAAAAAAAAAAAA1111IIIIIIIIIIIIIIIIIIIIIIIIIIIIIIII
AAAAAAAAAAAAAAAAAAAAAAAAAAAAA111IIIIIIIIIIIIIIIIIIIIIIIIIIIIIIII
AAAAAAAAAAAAAAAAAAAAAAAAAAAAA111IIIIIII1IIIIIIIIIIIIIIIIIIIIIIII
AAAAAAAAAAAAAAAAAAAAAAAAAAAAA111IIIIIII11IIIIIIIIIIIIIIIIIIIIIII
AAAAAAAAAAAAAAAAAAAAAAAAAAAAAA11IIIIIII11IIIIIIIIIIIIIIIIIIIIIII
AAAAAAAAAAAAAAAAAAAAAAAAAAAAAAA1IIIIIII11IIIIIIIIIIIIIIIIIIIIIII
AAAAAAAAAAAAAAAAAAAAAAAAAAAAAAAAIIIIIII11IIIIIIIIIIIIIIIIIIIIIII
AAAAAAAAAAAAAAAAAAAAAAAAAAAAAAAAAIIIIII11IIIIIIIIIIIIIIIIIIIIIII
AAAAAAAAAAAAAAAAAAAAAAAAAAAAAAAAAAIIIII11IIIIIIIIIIIIIIIIIIIIIII
AAAAAAAAAAAAAAAAAAAAAAAAAAAAAAAAAA111II11IIIIIIIIIIIIIIIIIIIIIII
AAAAAAAAAAAAAAAAAAAAAAAAAAAAAAAAAAA11II11IIIIIIIIIIIIIIIIIIIIIII
AAAAAAAAAAAAAAAAAAAAAAAAAAAAAAAAAAAA1II11IIIIIIIIIIIIIIIIIIIIIII
AAAAAAAAAAAAAAAAAAAAAAAAAAAAAAAAAAAA11111IIIII11111IIIIIIIIIIIII
AAAAAAAAAAAAAAAAAAAAAAAAAAAAAAAAAAAAA1111IIIII11111IIIIIIIIIIIII
AAAAAAAAAAAAAAAAAAAAAAAAAAAAAAAAAAAAAA111IIIII11111IIIIIIIIIIIII
AAAAAAAAAAAAAAAAAAAAAAAAAAAAAAAAAAAAAAA11IIIII11111IIIIIIIIIIIII
AAAAAAAAAAAAAAAAAAAAAAAAAAAAAAAAAAAAAAAA1IIIII11111IIIIIIIIIIIII
AAAAAAAAAAAAAAAAAAAAAAAAAAAAAAAAAAAAAAAAAIIIII11111IIIIIIIIIIIII
AAAAAAAAAAAAAAAAAAAAAAAAAAAAAAAAAAAAAAAAA111II1111111111IIIIIIII
AAAAAAAAAAAAAAAAAAAAAAAAAAAAAAAAAAAAAAAAAA11II1111111111IIIIIIII
AAAAAAAAAAAAAAAAAAAAAAAAAAAAAAAAAAAAAAAAAAA1II1111111111IIIIIIII
AAAAAAAAAAAAAAAAAAAAAAAAAAAAAAAAAAAAAAAAAAAAII1111111111IIIIIIII
AAAAAAAAAAAAAAAAAAAAAAAAAAAAAAAAAAAAAAAAAAAA111111111111111IIIII
AAAAAAAAAAAAAAAAAAAAAAAAAAAAAAAAAAAAAAAAAAAAA11111111111111IIIII
AAAAAAAAAAAAAAAAAAAAAAAAAAAAAAAAAAAAAAAAAAAAA111111111111111IIII
AAAAAAAAAAAAAAAAAAAAAAAAAAAAAAAAAAAAAAAAAAAAAA111111111111111III
AAAAAAAAAAAAAAAAAAAAAAAAAAAAAAAAAAAAAAAAAAAAAAA111111111111111II
AAAAAAAAAAAAAAAAAAAAAAAAAAAAAAAAAAAAAAAAAAAAAAAA11111111111111II
AAAAAAAAAAAAAAAAAAAAAAAAAAAAAAAAAAAAAAAAAAAAAAAAA1111111111111II
AAAAAAAAAAAAAAAAAAAAAAAAAAAAAAAAAAAAAAAAAAAAAAAAAA111111111111II
AAAAAAAAAAAAAAAAAAAAAAAAAAAAAAAAAAAAAAAAAAAAAAAAAAA11111111111II
AAAAAAAAAAAAAAAAAAAAAAAAAAAAAAAAAAAAAAAAAAAAAAAAAAA1111111111111
AAAAAAAAAAAAAAAAAAAAAAAAAAAAAAAAAAAAAAAAAAAAAAAAAAAA111111111111
AAAAAAAAAAAAAAAAAAAAAAAAAAAAAAAAAAAAAAAAAAAAAAAAAAAAA11111111111
AAAAAAAAAAAAAAAAAAAAAAAAAAAAAAAAAAAAAAAAAAAAAAAAAAAAAA1111111111
AAAAAAAAAAAAAAAAAAAAAAAAAAAAAAAAAAAAAAAAAAAAAAAAAAAAAAA111111111
AAAAAAAAAAAAAAAAAAAAAAAAAAAAAAAAAAAAAAAAAAAAAAAAAAAAAAAA11111111
AAAAAAAAAAAAAAAAAAAAAAAAAAAAAAAAAAAAAAAAAAAAAAAAAAAAAAAAA1111111
AAAAAAAAAAAAAAAAAAAAAAAAAAAAAAAAAAAAAAAAAAAAAAAAAAAAAAAAAA111111
AAAAAAAAAAAAAAAAAAAAAAAAAAAAAAAAAAAAAAAAAAAAAAAAAAAAAAAAAAA11111
AAAAAAAAAAAAAAAAAAAAAAAAAAAAAAAAAAAAAAAAAAAAAAAAAAAAAAAAAAAA1111
AAAAAAAAAAAAAAAAAAAAAAAAAAAAAAAAAAAAAAAAAAAAAAAAAAAAAAAAAAAAA111
AAAAAAAAAAAAAAAAAAAAAAAAAAAAAAAAAAAAAAAAAAAAAAAAAAAAAAAAAAAAAA11
AAAAAAAAAAAAAAAAAAAAAAAAAAAAAAAAAAAAAAAAAAAAAAAAAAAAAAAAAAAAAAA1
AAAAAAAAAAAAAAAAAAAAAAAAAAAAAAAAAAAAAAAAAAAAAAAAAAAAAAAAAAAAAAAA
A1111IIIIII11IIIIIIIIIIIIIIIIIIIIIIIIIIIIIIIIIIIIIIIIIIIIIIIIIII
AA1111IIIII111IIIIIIIIIIIIIIIIIIIIIIIIIIIIIIIIIIIIIIIIIIIIIIIIII
AAA1111IIII1111IIIIIIIIIIIIIIIIIIIIIIIIIIIIIIIIIIIIIIIIIIIIIIIII
AAAA1111III11111IIIIIIIIIIIIIIIIIIIIIIIIIIIIIIIIIIIIIIIIIIIIIIII
AAAAA1111II111111IIIIIIIIIIIIIIIIIIIIIIIIIIIIIIIIIIIIIIIIIIIIIII
AAAAAA1111I1111111IIIIIIIIIIIIIIIIIIIIIIIIIIIIIIIIIIIIIIIIIIIIII
AAAAAAA111111111111IIIIIIIIIIIIIIIIIIIIIIIIIIIIIIIIIIIIIIIIIIIII
AAAAAAAA111111111111IIIIIIIIIIIIIIIIIIIIIIIIIIIIIIIIIIIIIIIIIIII
AAAAAAAAA111111111111IIIIIIIIIIIIIIIIIIIIIIIIIIIIIIIIIIIIIIIIIII
AAAAAAAAAA111111111111IIIIIIIIIIIIIIIIIIIIIIIIIIIIIIIIIIIIIIIIII
AAAAAAAAAAA111111111111IIIIIIIIIIIIIIIIIIIIIIIIIIIIIIIIIIIIIIIII
AAAAAAAAAAAA111111111111IIIIIIIIIIIIIIIIIIIIIIIIIIIIIIIIIIIIIIII
AAAAAAAAAAAAA111111111111IIIIIIIIIIIIIIIIIIIIIIIIIIIIIIIIIIIIIII
AAAAAAAAAAAAAA111111111111IIIIIIIIIIIIIIIIIIIIIIIIIIIIIIIIIIIIII
AAAAAAAAAAAAAAA111111111111IIIIIIIIIIIIIIIIIIIIIIIIIIIIIIIIIIIII
AAAAAAAAAAAAAAAA111111111111IIIIIIIIIIIIIIIIIIIIIIIIIIIIIIIIIIII
AAAAAAAAAAAAAAAAA111111111111IIIIIIIIIIIIIIIIIIIIIIIIIIIIIIIIIII
AAAAAAAAAAAAAAAAAA111111111111IIIIIIIIIIIIIIIIIIIIIIIIIIIIIIIIII
AAAAAAAAAAAAAAAAAAA111111111111IIIIIIIIIIIIIIIIIIIIIIIIIIIIIIIII
AAAAAAAAAAAAAAAAAAAA111111111111IIIIIIIIIIIIIIIIIIIIIIIIIIIIIIII
AAAAAAAAAAAAAAAAAAAAA111111111111IIIIIIIIIIIIIIIIIIIIIIIIIIIIIII
AAAAAAAAAAAAAAAAAAAAAA111111111111IIIIIIIIIIIIIIIIIIIIIIIIIIIIII
AAAAAAAAAAAAAAAAAAAAAAA111111111111IIIIIIIIIIIIIIIIIIIIIIIIIIIII
AAAAAAAAAAAAAAAAAAAAAAAA111111111111IIIIIIIIIIIIIIIIIIIIIIIIIIII
AAAAAAAAAAAAAAAAAAAAAAAAA111111111111IIIIIIIIIIIIIIIIIIIIIIIIIII
AAAAAAAAAAAAAAAAAAAAAAAAAA111111111111IIIIIIIIIIIIIIIIIIIIIIIIII
AAAAAAAAAAAAAAAAAAAAAAAAAAA111111111111IIIIIIIIIIIIIIIIIIIIIIIII
AAAAAAAAAAAAAAAAAAAAAAAAAAAA111111111111IIIIIIIIIIIIIIIIIIIIIIII
AAAAAAAAAAAAAAAAAAAAAAAAAAAAA111111111111IIIIIIIIIIIIIIIIIIIIIII
AAAAAAAAAAAAAAAAAAAAAAAAAAAAAA111111111111IIIIIIIIIIIIIIIIIIIIII
AAAAAAAAAAAAAAAAAAAAAAAAAAAAAAA111111111111IIIIIIIIIIIIIIIIIIIII
AAAAAAAAAAAAAAAAAAAAAAAAAAAAAAAA111111111111IIIIIIIIIIIIIIIIIIII
AAAAAAAAAAAAAAAAAAAAAAAAAAAAAAAAA111111111111IIIIIIIIIIIIIIIIIII
AAAAAAAAAAAAAAAAAAAAAAAAAAAAAAAAAA111111111111IIIIIIIIIIIIIIIIII
AAAAAAAAAAAAAAAAAAAAAAAAAAAAAAAAAAA111111111111IIIIIIIIIIIIIIIII
AAAAAAAAAAAAAAAAAAAAAAAAAAAAAAAAAAAA111111111111IIIIIIIIIIIIIIII
AAAAAAAAAAAAAAAAAAAAAAAAAAAAAAAAAAAAA111111111111IIIIIIIIIIIIIII
AAAAAAAAAAAAAAAAAAAAAAAAAAAAAAAAAAAAAA111111111111IIIIIIIIIIIIII
AAAAAAAAAAAAAAAAAAAAAAAAAAAAAAAAAAAAAAA111111111111IIIIIIIIIIIII
AAAAAAAAAAAAAAAAAAAAAAAAAAAAAAAAAAAAAAAA111111111111IIIIIIIIIIII
AAAAAAAAAAAAAAAAAAAAAAAAAAAAAAAAAAAAAAAAA111111111111IIIIIIIIIII
AAAAAAAAAAAAAAAAAAAAAAAAAAAAAAAAAAAAAAAAAA111111111111IIIIIIIIII
AAAAAAAAAAAAAAAAAAAAAAAAAAAAAAAAAAAAAAAAAAA111111111111IIIIIIIII
AAAAAAAAAAAAAAAAAAAAAAAAAAAAAAAAAAAAAAAAAAAA111111111111IIIIIIII
AAAAAAAAAAAAAAAAAAAAAAAAAAAAAAAAAAAAAAAAAAAAA111111111111IIIIIII
AAAAAAAAAAAAAAAAAAAAAAAAAAAAAAAAAAAAAAAAAAAAAA111111111111IIIIII
AAAAAAAAAAAAAAAAAAAAAAAAAAAAAAAAAAAAAAAAAAAAAAA111111111111IIIII
AAAAAAAAAAAAAAAAAAAAAAAAAAAAAAAAAAAAAAAAAAAAAAAA111111111111IIII
AAAAAAAAAAAAAAAAAAAAAAAAAAAAAAAAAAAAAAAAAAAAAAAAA111111111111III
AAAAAAAAAAAAAAAAAAAAAAAAAAAAAAAAAAAAAAAAAAAAAAAAAA111111111111II
AAAAAAAAAAAAAAAAAAAAAAAAAAAAAAAAAAAAAAAAAAAAAAAAAAA111111111111I
AAAAAAAAAAAAAAAAAAAAAAAAAAAAAAAAAAAAAAAAAAAAAAAAAAAA111111111111
AAAAAAAAAAAAAAAAAAAAAAAAAAAAAAAAAAAAAAAAAAAAAAAAAAAAA11111111111
AAAAAAAAAAAAAAAAAAAAAAAAAAAAAAAAAAAAAAAAAAAAAAAAAAAAAA1111111111
AAAAAAAAAAAAAAAAAAAAAAAAAAAAAAAAAAAAAAAAAAAAAAAAAAAAAAA111111111
AAAAAAAAAAAAAAAAAAAAAAAAAAAAAAAAAAAAAAAAAAAAAAAAAAAAAAAA11111111
AAAAAAAAAAAAAAAAAAAAAAAAAAAAAAAAAAAAAAAAAAAAAAAAAAAAAAAAA1111111
AAAAAAAAAAAAAAAAAAAAAAAAAAAAAAAAAAAAAAAAAAAAAAAAAAAAAAAAAA111111
AAAAAAAAAAAAAAAAAAAAAAAAAAAAAAAAAAAAAAAAAAAAAAAAAAAAAAAAAAA11111
AAAAAAAAAAAAAAAAAAAAAAAAAAAAAAAAAAAAAAAAAAAAAAAAAAAAAAAAAAAA1111
AAAAAAAAAAAAAAAAAAAAAAAAAAAAAAAAAAAAAAAAAAAAAAAAAAAAAAAAAAAAA111
AAAAAAAAAAAAAAAAAAAAAAAAAAAAAAAAAAAAAAAAAAAAAAAAAAAAAAAAAAAAAA11
AAAAAAAAAAAAAAAAAAAAAAAAAAAAAAAAAAAAAAAAAAAAAAAAAAAAAAAAAAAAAAA1
AAAAAAAAAAAAAAAAAAAAAAAAAAAAAAAAAAAAAAAAAAAAAAAAAAAAAAAAAAAAAAAA
[MLOP] Prefetch Degree Mean: 6.65917
[MLOP] Prefetch Degree SD: 3.00021
[MLOP] Max Score Left Mean (%): 53.1766
[MLOP] Max Score Left SD (%): 24.2962
[MLOP] Max Score Right Mean (%): 89.6091
[MLOP] Max Score Right SD (%): 10.9662

DRAM Statistics
 CHANNEL 0
 RQ ROW_BUFFER_HIT:    3815104  ROW_BUFFER_MISS:   29809790
 DBUS_CONGESTED:         39
 WQ ROW_BUFFER_HIT:     462388  ROW_BUFFER_MISS:    6828385  FULL:        583

 AVG_CONGESTED_CYCLE: 5
 All warmup complete: 5
Channel 0 Bank busy for read cycles: 0
Channel 0 Bank busy for write cycles: 0
Channel 0
Rank 0
0banks busy for read cycles: 105456
0banks busy for write cycles: 0
1banks busy for read cycles: 15572321
1banks busy for write cycles: 814121
2banks busy for read cycles: 39119318
2banks busy for write cycles: 814007
3banks busy for read cycles: 59817727
3banks busy for write cycles: 813879
4banks busy for read cycles: 75830749
4banks busy for write cycles: 814322
5banks busy for read cycles: 92068210
5banks busy for write cycles: 864093
6banks busy for read cycles: 116551153
6banks busy for write cycles: 2940423
7banks busy for read cycles: 162217960
7banks busy for write cycles: 32644103
8banks busy for read cycles: 257593908
8banks busy for write cycles: 167449275

CPU 0 Branch Prediction Accuracy: 99.4284% MPKI: 1.3085 Average ROB Occupancy at Mispredict: 41.0516
Branch types
NOT_BRANCH: 857806718 77.108%
BRANCH_DIRECT_JUMP: 0 0%
BRANCH_INDIRECT: 0 0%
BRANCH_CONDITIONAL: 254667813 22.892%
BRANCH_DIRECT_CALL: 0 0%
BRANCH_INDIRECT_CALL: 0 0%
BRANCH_RETURN: 0 0%
BRANCH_OTHER: 0 0%


CPU 1 Branch Prediction Accuracy: 99.4283% MPKI: 1.30869 Average ROB Occupancy at Mispredict: 40.7487
Branch types
NOT_BRANCH: 858942735 77.108%
BRANCH_DIRECT_JUMP: 0 0%
BRANCH_INDIRECT: 0 0%
BRANCH_CONDITIONAL: 255004843 22.892%
BRANCH_DIRECT_CALL: 0 0%
BRANCH_INDIRECT_CALL: 0 0%
BRANCH_RETURN: 0 0%
BRANCH_OTHER: 0 0%


CPU 2 Branch Prediction Accuracy: 93.8877% MPKI: 8.11414 Average ROB Occupancy at Mispredict: 106.644
Branch types
NOT_BRANCH: 173242802 86.6214%
BRANCH_DIRECT_JUMP: 2 1e-06%
BRANCH_INDIRECT: 0 0%
BRANCH_CONDITIONAL: 26757367 13.3787%
BRANCH_DIRECT_CALL: 0 0%
BRANCH_INDIRECT_CALL: 0 0%
BRANCH_RETURN: 2 1e-06%
BRANCH_OTHER: 0 0%


CPU 3 Branch Prediction Accuracy: 98.9516% MPKI: 0.749011 Average ROB Occupancy at Mispredict: 83.7369
Branch types
NOT_BRANCH: 806977924 92.8151%
BRANCH_DIRECT_JUMP: 1565646 0.180074%
BRANCH_INDIRECT: 29 3.33545e-06%
BRANCH_CONDITIONAL: 55679411 6.404%
BRANCH_DIRECT_CALL: 2611913 0.300411%
BRANCH_INDIRECT_CALL: 0 0%
BRANCH_RETURN: 2611911 0.300411%
BRANCH_OTHER: 0 0%

DRAM PAGES: 1048576
Allocated PAGES: 90744
