
*** ChampSim Multicore Out-of-Order Simulator ***

Warmup Instructions: 50000000
Simulation Instructions: 200000000
Number of CPUs: 4
LLC sets: 8192
LLC ways: 16
Off-chip DRAM Size: 4096 MB Channels: 1 Width: 64-bit Data Rate: 6400 MT/s
CPU 0 runs ./traces/cs/classification_phase1_core0.trace.xz
.xz
CPU 1 runs ./traces/cs/classification_phase1_core1.trace.xz
.xz
CPU 2 runs ./traces/cs/classification_phase1_core2.trace.xz
.xz
CPU 3 runs ./traces/cs/classification_phase1_core3.trace.xz
.xz
BTB has LRU replacement policy
ITLB has LRU replacement policy
DTLB has LRU replacement policy
STLB has LRU replacement policy
L1I has LRU replacement policy
L1D has LRU replacement policy
Initialize SRRIP state for L2C
Initialize DRRIP state for LLC
BTB has LRU replacement policy
ITLB has LRU replacement policy
DTLB has LRU replacement policy
STLB has LRU replacement policy
L1I has LRU replacement policy
L1D has LRU replacement policy
Initialize SRRIP state for L2C
Initialize DRRIP state for LLC
BTB has LRU replacement policy
ITLB has LRU replacement policy
DTLB has LRU replacement policy
STLB has LRU replacement policy
L1I has LRU replacement policy
L1D has LRU replacement policy
Initialize SRRIP state for L2C
Initialize DRRIP state for LLC
BTB has LRU replacement policy
ITLB has LRU replacement policy
DTLB has LRU replacement policy
STLB has LRU replacement policy
L1I has LRU replacement policy
L1D has LRU replacement policy
Initialize SRRIP state for L2C
Initialize DRRIP state for LLC
UNIQUE_ASID[0] = 
UNIQUE_ASID[1] = €
Heartbeat CPU 0 instructions: 10000000 cycles: 2634845 heartbeat IPC: 3.79529 cumulative IPC: 3.79529 (Simulation time: 0 hr 1 min 53 sec) 
Heartbeat CPU 3 instructions: 10000002 cycles: 2641057 heartbeat IPC: 3.78636 cumulative IPC: 3.78636 (Simulation time: 0 hr 1 min 54 sec) 
Heartbeat CPU 1 instructions: 10000000 cycles: 2642325 heartbeat IPC: 3.78455 cumulative IPC: 3.78455 (Simulation time: 0 hr 1 min 54 sec) 
Heartbeat CPU 2 instructions: 10000000 cycles: 2666860 heartbeat IPC: 3.74973 cumulative IPC: 3.74973 (Simulation time: 0 hr 1 min 55 sec) 
Heartbeat CPU 0 instructions: 20000000 cycles: 5268920 heartbeat IPC: 3.7964 cumulative IPC: 3.79584 (Simulation time: 0 hr 4 min 0 sec) 
Heartbeat CPU 3 instructions: 20000003 cycles: 5278628 heartbeat IPC: 3.79137 cumulative IPC: 3.78886 (Simulation time: 0 hr 4 min 0 sec) 
Heartbeat CPU 1 instructions: 20000000 cycles: 5280982 heartbeat IPC: 3.78981 cumulative IPC: 3.78717 (Simulation time: 0 hr 4 min 0 sec) 
Heartbeat CPU 2 instructions: 20000003 cycles: 5330360 heartbeat IPC: 3.75446 cumulative IPC: 3.75209 (Simulation time: 0 hr 4 min 2 sec) 
Heartbeat CPU 0 instructions: 30000001 cycles: 7903676 heartbeat IPC: 3.79542 cumulative IPC: 3.7957 (Simulation time: 0 hr 5 min 26 sec) 
Heartbeat CPU 3 instructions: 30000000 cycles: 7917596 heartbeat IPC: 3.78936 cumulative IPC: 3.78903 (Simulation time: 0 hr 5 min 26 sec) 
Heartbeat CPU 1 instructions: 30000003 cycles: 7921139 heartbeat IPC: 3.78765 cumulative IPC: 3.78733 (Simulation time: 0 hr 5 min 26 sec) 
Heartbeat CPU 2 instructions: 30000001 cycles: 7991272 heartbeat IPC: 3.75811 cumulative IPC: 3.7541 (Simulation time: 0 hr 5 min 29 sec) 
Heartbeat CPU 0 instructions: 40000002 cycles: 10543202 heartbeat IPC: 3.78856 cumulative IPC: 3.79391 (Simulation time: 0 hr 7 min 11 sec) 
Heartbeat CPU 3 instructions: 40000001 cycles: 10554775 heartbeat IPC: 3.79193 cumulative IPC: 3.78975 (Simulation time: 0 hr 7 min 11 sec) 
Heartbeat CPU 1 instructions: 40000001 cycles: 10560080 heartbeat IPC: 3.7894 cumulative IPC: 3.78785 (Simulation time: 0 hr 7 min 12 sec) 
Heartbeat CPU 2 instructions: 40000000 cycles: 10655702 heartbeat IPC: 3.75315 cumulative IPC: 3.75386 (Simulation time: 0 hr 7 min 15 sec) 
Heartbeat CPU 0 instructions: 50000003 cycles: 13176802 heartbeat IPC: 3.79708 cumulative IPC: 3.79455 (Simulation time: 0 hr 8 min 57 sec) 
Heartbeat CPU 3 instructions: 50000001 cycles: 13193973 heartbeat IPC: 3.78903 cumulative IPC: 3.78961 (Simulation time: 0 hr 8 min 58 sec) 
Heartbeat CPU 1 instructions: 50000003 cycles: 13201142 heartbeat IPC: 3.78636 cumulative IPC: 3.78755 (Simulation time: 0 hr 8 min 58 sec) 
Heartbeat CPU 2 instructions: 50000001 cycles: 13361662 heartbeat IPC: 3.69555 cumulative IPC: 3.74205 (Simulation time: 0 hr 9 min 5 sec) 

Warmup complete CPU 0 instructions: 50678792 cycles: 13361662 (Simulation time: 0 hr 9 min 5 sec) 
Warmup complete CPU 1 instructions: 50563932 cycles: 13361662 (Simulation time: 0 hr 9 min 5 sec) 
Warmup complete CPU 2 instructions: 50000001 cycles: 13361662 (Simulation time: 0 hr 9 min 5 sec) 
Warmup complete CPU 3 instructions: 50584635 cycles: 13361661 (Simulation time: 0 hr 9 min 5 sec) 

Heartbeat CPU 2 instructions: 60000000 cycles: 26635650 heartbeat IPC: 0.753353 cumulative IPC: 0.753353 (Simulation time: 0 hr 11 min 39 sec) 
Heartbeat CPU 0 instructions: 60000003 cycles: 26726491 heartbeat IPC: 0.738024 cumulative IPC: 0.697443 (Simulation time: 0 hr 11 min 40 sec) 
Heartbeat CPU 3 instructions: 60000002 cycles: 26998829 heartbeat IPC: 0.724383 cumulative IPC: 0.690419 (Simulation time: 0 hr 11 min 45 sec) 
Heartbeat CPU 1 instructions: 60000003 cycles: 27014858 heartbeat IPC: 0.723918 cumulative IPC: 0.691125 (Simulation time: 0 hr 11 min 45 sec) 
Heartbeat CPU 2 instructions: 70000002 cycles: 38464710 heartbeat IPC: 0.845376 cumulative IPC: 0.796716 (Simulation time: 0 hr 13 min 56 sec) 
Heartbeat CPU 0 instructions: 70000002 cycles: 41043603 heartbeat IPC: 0.698465 cumulative IPC: 0.697972 (Simulation time: 0 hr 14 min 35 sec) 
Heartbeat CPU 3 instructions: 70000001 cycles: 41083784 heartbeat IPC: 0.709977 cumulative IPC: 0.700356 (Simulation time: 0 hr 14 min 36 sec) 
Heartbeat CPU 1 instructions: 70000000 cycles: 41244910 heartbeat IPC: 0.702738 cumulative IPC: 0.697052 (Simulation time: 0 hr 14 min 39 sec) 
Heartbeat CPU 2 instructions: 80000002 cycles: 49487313 heartbeat IPC: 0.907227 cumulative IPC: 0.830435 (Simulation time: 0 hr 16 min 14 sec) 
Heartbeat CPU 0 instructions: 80000002 cycles: 54511499 heartbeat IPC: 0.742507 cumulative IPC: 0.712547 (Simulation time: 0 hr 17 min 9 sec) 
Heartbeat CPU 3 instructions: 80000002 cycles: 55057601 heartbeat IPC: 0.715624 cumulative IPC: 0.705473 (Simulation time: 0 hr 17 min 16 sec) 
Heartbeat CPU 1 instructions: 80000000 cycles: 55765346 heartbeat IPC: 0.688685 cumulative IPC: 0.694187 (Simulation time: 0 hr 17 min 25 sec) 
Heartbeat CPU 2 instructions: 90000003 cycles: 60392354 heartbeat IPC: 0.917007 cumulative IPC: 0.850508 (Simulation time: 0 hr 18 min 22 sec) 
Heartbeat CPU 0 instructions: 90000001 cycles: 67870088 heartbeat IPC: 0.748582 cumulative IPC: 0.721379 (Simulation time: 0 hr 20 min 16 sec) 
Heartbeat CPU 3 instructions: 90000002 cycles: 69139548 heartbeat IPC: 0.710129 cumulative IPC: 0.706649 (Simulation time: 0 hr 20 min 33 sec) 
Heartbeat CPU 1 instructions: 90000001 cycles: 70227789 heartbeat IPC: 0.691446 cumulative IPC: 0.69349 (Simulation time: 0 hr 20 min 48 sec) 
Heartbeat CPU 2 instructions: 100000002 cycles: 70330139 heartbeat IPC: 1.00626 cumulative IPC: 0.877678 (Simulation time: 0 hr 20 min 49 sec) 
Heartbeat CPU 2 instructions: 110000000 cycles: 82003000 heartbeat IPC: 0.856688 cumulative IPC: 0.874109 (Simulation time: 0 hr 22 min 45 sec) 
Heartbeat CPU 0 instructions: 100000000 cycles: 82162901 heartbeat IPC: 0.699652 cumulative IPC: 0.716865 (Simulation time: 0 hr 22 min 47 sec) 
Heartbeat CPU 3 instructions: 100000003 cycles: 83293029 heartbeat IPC: 0.70654 cumulative IPC: 0.706627 (Simulation time: 0 hr 23 min 6 sec) 
Heartbeat CPU 1 instructions: 100000000 cycles: 84666164 heartbeat IPC: 0.692599 cumulative IPC: 0.693309 (Simulation time: 0 hr 23 min 30 sec) 
Heartbeat CPU 2 instructions: 120000000 cycles: 90936015 heartbeat IPC: 1.11944 cumulative IPC: 0.90236 (Simulation time: 0 hr 25 min 9 sec) 
Heartbeat CPU 0 instructions: 110000000 cycles: 96951624 heartbeat IPC: 0.676191 cumulative IPC: 0.709669 (Simulation time: 0 hr 26 min 29 sec) 
Heartbeat CPU 3 instructions: 110000000 cycles: 97080452 heartbeat IPC: 0.725298 cumulative IPC: 0.709702 (Simulation time: 0 hr 26 min 31 sec) 
Heartbeat CPU 1 instructions: 110000000 cycles: 98843144 heartbeat IPC: 0.705369 cumulative IPC: 0.695309 (Simulation time: 0 hr 27 min 0 sec) 
Heartbeat CPU 2 instructions: 130000002 cycles: 99859079 heartbeat IPC: 1.12069 cumulative IPC: 0.924883 (Simulation time: 0 hr 27 min 12 sec) 
Heartbeat CPU 2 instructions: 140000001 cycles: 108515024 heartbeat IPC: 1.15528 cumulative IPC: 0.945841 (Simulation time: 0 hr 29 min 9 sec) 
Heartbeat CPU 3 instructions: 120000002 cycles: 110544757 heartbeat IPC: 0.742705 cumulative IPC: 0.714274 (Simulation time: 0 hr 29 min 36 sec) 
Heartbeat CPU 0 instructions: 120000002 cycles: 111018970 heartbeat IPC: 0.710866 cumulative IPC: 0.709841 (Simulation time: 0 hr 29 min 40 sec) 
Heartbeat CPU 1 instructions: 120000002 cycles: 112962800 heartbeat IPC: 0.708233 cumulative IPC: 0.697141 (Simulation time: 0 hr 30 min 0 sec) 
Heartbeat CPU 2 instructions: 150000000 cycles: 119965823 heartbeat IPC: 0.873301 cumulative IPC: 0.93805 (Simulation time: 0 hr 31 min 11 sec) 
Heartbeat CPU 3 instructions: 130000003 cycles: 124603862 heartbeat IPC: 0.711283 cumulative IPC: 0.713896 (Simulation time: 0 hr 31 min 56 sec) 
Heartbeat CPU 0 instructions: 130000003 cycles: 125492938 heartbeat IPC: 0.690896 cumulative IPC: 0.707396 (Simulation time: 0 hr 32 min 5 sec) 
Heartbeat CPU 1 instructions: 130000000 cycles: 127641782 heartbeat IPC: 0.681246 cumulative IPC: 0.6951 (Simulation time: 0 hr 32 min 25 sec) 
Heartbeat CPU 2 instructions: 160000003 cycles: 133576100 heartbeat IPC: 0.734739 cumulative IPC: 0.915032 (Simulation time: 0 hr 33 min 40 sec) 
Heartbeat CPU 3 instructions: 140000000 cycles: 138561686 heartbeat IPC: 0.716444 cumulative IPC: 0.71418 (Simulation time: 0 hr 34 min 38 sec) 
Heartbeat CPU 0 instructions: 140000003 cycles: 139237807 heartbeat IPC: 0.727544 cumulative IPC: 0.709596 (Simulation time: 0 hr 34 min 45 sec) 
Heartbeat CPU 1 instructions: 140000003 cycles: 142140835 heartbeat IPC: 0.6897 cumulative IPC: 0.694492 (Simulation time: 0 hr 35 min 15 sec) 
Heartbeat CPU 2 instructions: 170000002 cycles: 145476761 heartbeat IPC: 0.840289 cumulative IPC: 0.908299 (Simulation time: 0 hr 36 min 1 sec) 
Heartbeat CPU 3 instructions: 150000002 cycles: 152555815 heartbeat IPC: 0.714586 cumulative IPC: 0.714221 (Simulation time: 0 hr 37 min 15 sec) 
Heartbeat CPU 0 instructions: 150000000 cycles: 153743759 heartbeat IPC: 0.689372 cumulative IPC: 0.707506 (Simulation time: 0 hr 37 min 27 sec) 
Heartbeat CPU 1 instructions: 150000001 cycles: 156292712 heartbeat IPC: 0.70662 cumulative IPC: 0.695693 (Simulation time: 0 hr 38 min 1 sec) 
Heartbeat CPU 2 instructions: 180000000 cycles: 156622011 heartbeat IPC: 0.897243 cumulative IPC: 0.907439 (Simulation time: 0 hr 38 min 6 sec) 
Heartbeat CPU 3 instructions: 160000001 cycles: 166607375 heartbeat IPC: 0.711665 cumulative IPC: 0.713986 (Simulation time: 0 hr 40 min 23 sec) 
Heartbeat CPU 2 instructions: 190000003 cycles: 167653374 heartbeat IPC: 0.906507 cumulative IPC: 0.907372 (Simulation time: 0 hr 40 min 39 sec) 
Heartbeat CPU 0 instructions: 160000001 cycles: 168202870 heartbeat IPC: 0.691606 cumulative IPC: 0.706021 (Simulation time: 0 hr 40 min 47 sec) 
Heartbeat CPU 1 instructions: 160000001 cycles: 170461881 heartbeat IPC: 0.705758 cumulative IPC: 0.6966 (Simulation time: 0 hr 41 min 23 sec) 
Heartbeat CPU 2 instructions: 200000002 cycles: 177821189 heartbeat IPC: 0.983495 cumulative IPC: 0.912078 (Simulation time: 0 hr 43 min 9 sec) 
Heartbeat CPU 3 instructions: 170000000 cycles: 180620147 heartbeat IPC: 0.713635 cumulative IPC: 0.713957 (Simulation time: 0 hr 43 min 48 sec) 
Heartbeat CPU 0 instructions: 170000000 cycles: 182469202 heartbeat IPC: 0.700951 cumulative IPC: 0.705594 (Simulation time: 0 hr 44 min 13 sec) 
Heartbeat CPU 1 instructions: 170000000 cycles: 184770081 heartbeat IPC: 0.6989 cumulative IPC: 0.696792 (Simulation time: 0 hr 44 min 48 sec) 
Heartbeat CPU 2 instructions: 210000001 cycles: 189539379 heartbeat IPC: 0.853374 cumulative IPC: 0.908174 (Simulation time: 0 hr 46 min 4 sec) 
Heartbeat CPU 3 instructions: 180000001 cycles: 194420365 heartbeat IPC: 0.724626 cumulative IPC: 0.71477 (Simulation time: 0 hr 47 min 25 sec) 
Heartbeat CPU 0 instructions: 180000002 cycles: 195808524 heartbeat IPC: 0.749663 cumulative IPC: 0.708816 (Simulation time: 0 hr 47 min 50 sec) 
Heartbeat CPU 2 instructions: 220000000 cycles: 198443105 heartbeat IPC: 1.12313 cumulative IPC: 0.918515 (Simulation time: 0 hr 48 min 31 sec) 
Heartbeat CPU 1 instructions: 180000002 cycles: 198941592 heartbeat IPC: 0.705641 cumulative IPC: 0.697468 (Simulation time: 0 hr 48 min 40 sec) 
Heartbeat CPU 2 instructions: 230000000 cycles: 207317062 heartbeat IPC: 1.12689 cumulative IPC: 0.928048 (Simulation time: 0 hr 50 min 56 sec) 
Heartbeat CPU 3 instructions: 190000002 cycles: 208107652 heartbeat IPC: 0.730605 cumulative IPC: 0.715883 (Simulation time: 0 hr 51 min 11 sec) 
Heartbeat CPU 0 instructions: 190000000 cycles: 208852715 heartbeat IPC: 0.766625 cumulative IPC: 0.712673 (Simulation time: 0 hr 51 min 25 sec) 
Heartbeat CPU 1 instructions: 190000003 cycles: 212938379 heartbeat IPC: 0.71445 cumulative IPC: 0.698659 (Simulation time: 0 hr 52 min 40 sec) 
Heartbeat CPU 2 instructions: 240000001 cycles: 215962965 heartbeat IPC: 1.15662 cumulative IPC: 0.937802 (Simulation time: 0 hr 53 min 23 sec) 
Heartbeat CPU 3 instructions: 200000001 cycles: 221806402 heartbeat IPC: 0.729994 cumulative IPC: 0.71681 (Simulation time: 0 hr 54 min 46 sec) 
Heartbeat CPU 0 instructions: 200000001 cycles: 222452595 heartbeat IPC: 0.735301 cumulative IPC: 0.714145 (Simulation time: 0 hr 54 min 54 sec) 
Heartbeat CPU 1 instructions: 200000000 cycles: 227173060 heartbeat IPC: 0.702509 cumulative IPC: 0.698915 (Simulation time: 0 hr 55 min 59 sec) 
Heartbeat CPU 2 instructions: 250000002 cycles: 227249201 heartbeat IPC: 0.886035 cumulative IPC: 0.935071 (Simulation time: 0 hr 56 min 0 sec) 
Finished CPU 2 instructions: 200000001 cycles: 213887539 cumulative IPC: 0.935071 (Simulation time: 0 hr 56 min 0 sec) 
Heartbeat CPU 3 instructions: 210000002 cycles: 236096860 heartbeat IPC: 0.699768 cumulative IPC: 0.715717 (Simulation time: 0 hr 58 min 2 sec) 
Heartbeat CPU 0 instructions: 210000001 cycles: 237775191 heartbeat IPC: 0.652631 cumulative IPC: 0.709945 (Simulation time: 0 hr 58 min 23 sec) 
Heartbeat CPU 2 instructions: 260000000 cycles: 240858685 heartbeat IPC: 0.734782 cumulative IPC: 0.923089 (Simulation time: 0 hr 59 min 8 sec) 
Heartbeat CPU 1 instructions: 210000003 cycles: 241885183 heartbeat IPC: 0.679712 cumulative IPC: 0.697679 (Simulation time: 0 hr 59 min 24 sec) 
Heartbeat CPU 3 instructions: 220000000 cycles: 249830607 heartbeat IPC: 0.728133 cumulative IPC: 0.716438 (Simulation time: 1 hr 1 min 28 sec) 
Heartbeat CPU 0 instructions: 220000000 cycles: 252175326 heartbeat IPC: 0.694438 cumulative IPC: 0.70901 (Simulation time: 1 hr 2 min 5 sec) 
Heartbeat CPU 2 instructions: 270000001 cycles: 252570079 heartbeat IPC: 0.853869 cumulative IPC: 0.9197 (Simulation time: 1 hr 2 min 11 sec) 
Heartbeat CPU 1 instructions: 220000000 cycles: 256225348 heartbeat IPC: 0.697342 cumulative IPC: 0.697659 (Simulation time: 1 hr 2 min 59 sec) 
Heartbeat CPU 2 instructions: 280000002 cycles: 263375179 heartbeat IPC: 0.925489 cumulative IPC: 0.91995 (Simulation time: 1 hr 4 min 47 sec) 
Heartbeat CPU 3 instructions: 230000003 cycles: 263561665 heartbeat IPC: 0.728276 cumulative IPC: 0.717088 (Simulation time: 1 hr 4 min 50 sec) 
Heartbeat CPU 0 instructions: 230000002 cycles: 266329255 heartbeat IPC: 0.706518 cumulative IPC: 0.70887 (Simulation time: 1 hr 5 min 29 sec) 
Heartbeat CPU 1 instructions: 230000000 cycles: 270747572 heartbeat IPC: 0.6886 cumulative IPC: 0.697148 (Simulation time: 1 hr 6 min 34 sec) 
Heartbeat CPU 2 instructions: 290000002 cycles: 274184349 heartbeat IPC: 0.92514 cumulative IPC: 0.920165 (Simulation time: 1 hr 7 min 17 sec) 
Heartbeat CPU 3 instructions: 240000000 cycles: 277421731 heartbeat IPC: 0.721497 cumulative IPC: 0.717319 (Simulation time: 1 hr 7 min 58 sec) 
Heartbeat CPU 0 instructions: 240000002 cycles: 279957712 heartbeat IPC: 0.733759 cumulative IPC: 0.710143 (Simulation time: 1 hr 8 min 36 sec) 
Heartbeat CPU 2 instructions: 300000000 cycles: 284174826 heartbeat IPC: 1.00095 cumulative IPC: 0.923146 (Simulation time: 1 hr 9 min 38 sec) 
Heartbeat CPU 1 instructions: 240000003 cycles: 285173070 heartbeat IPC: 0.693217 cumulative IPC: 0.696939 (Simulation time: 1 hr 9 min 48 sec) 
Heartbeat CPU 3 instructions: 250000000 cycles: 291585962 heartbeat IPC: 0.706004 cumulative IPC: 0.716743 (Simulation time: 1 hr 11 min 32 sec) 
Finished CPU 3 instructions: 200000002 cycles: 278816225 cumulative IPC: 0.717318 (Simulation time: 1 hr 11 min 43 sec) 
Heartbeat CPU 0 instructions: 250000000 cycles: 294544691 heartbeat IPC: 0.685543 cumulative IPC: 0.708866 (Simulation time: 1 hr 12 min 18 sec) 
Finished CPU 0 instructions: 200000003 cycles: 282250341 cumulative IPC: 0.708591 (Simulation time: 1 hr 12 min 35 sec) 
Heartbeat CPU 2 instructions: 310000003 cycles: 295743518 heartbeat IPC: 0.864402 cumulative IPC: 0.920739 (Simulation time: 1 hr 12 min 38 sec) 
Heartbeat CPU 1 instructions: 250000002 cycles: 299249186 heartbeat IPC: 0.710423 cumulative IPC: 0.697603 (Simulation time: 1 hr 13 min 35 sec) 
Finished CPU 1 instructions: 200000003 cycles: 286391096 cumulative IPC: 0.698346 (Simulation time: 1 hr 13 min 41 sec) 

ChampSim completed all CPUs

Total Simulation Statistics (not including warmup)

CPU 0 cumulative IPC: 0.707594 instructions: 202648699 cycles: 286391096
ITLB TOTAL     ACCESS:   29233637  HIT:   28006051  MISS:    1227586  HIT %:    95.8008  MISS %:    4.19922   MPKI: 6.0577
ITLB LOAD      ACCESS:          0  HIT:          0  MISS:          0  HIT %:       -nan  MISS %:       -nan   MPKI: 0
ITLB RFO       ACCESS:          0  HIT:          0  MISS:          0  HIT %:       -nan  MISS %:       -nan   MPKI: 0
ITLB PREFETCH  ACCESS:          0  HIT:          0  MISS:          0  HIT %:       -nan  MISS %:       -nan   MPKI: 0
ITLB WRITEBACK ACCESS:          0  HIT:          0  MISS:          0  HIT %:       -nan  MISS %:       -nan   MPKI: 0
DTLB TOTAL     ACCESS:   15890945  HIT:    7476439  MISS:    8414506  HIT %:    47.0484  MISS %:    52.9516   MPKI: 41.5226
DTLB LOAD      ACCESS:          0  HIT:          0  MISS:          0  HIT %:       -nan  MISS %:       -nan   MPKI: 0
DTLB RFO       ACCESS:          0  HIT:          0  MISS:          0  HIT %:       -nan  MISS %:       -nan   MPKI: 0
DTLB PREFETCH  ACCESS:          0  HIT:          0  MISS:          0  HIT %:       -nan  MISS %:       -nan   MPKI: 0
DTLB WRITEBACK ACCESS:          0  HIT:          0  MISS:          0  HIT %:       -nan  MISS %:       -nan   MPKI: 0
STLB TOTAL     ACCESS:   10544733  HIT:    4645466  MISS:    5899267  HIT %:    44.0548  MISS %:    55.9452   MPKI: 29.1108
STLB LOAD      ACCESS:          0  HIT:          0  MISS:          0  HIT %:       -nan  MISS %:       -nan   MPKI: 0
STLB RFO       ACCESS:          0  HIT:          0  MISS:          0  HIT %:       -nan  MISS %:       -nan   MPKI: 0
STLB PREFETCH  ACCESS:          0  HIT:          0  MISS:          0  HIT %:       -nan  MISS %:       -nan   MPKI: 0
STLB WRITEBACK ACCESS:          0  HIT:          0  MISS:          0  HIT %:       -nan  MISS %:       -nan   MPKI: 0
L1D TOTAL     ACCESS:   18567517  HIT:   16395341  MISS:    2172176  HIT %:    88.3012  MISS %:    11.6988   MPKI: 10.7189
L1D LOAD      ACCESS:   14618495  HIT:   13310437  MISS:    1308058  HIT %:     91.052  MISS %:    8.94797   MPKI: 6.45481
L1D RFO       ACCESS:    3175542  HIT:    3074687  MISS:     100855  HIT %:     96.824  MISS %:    3.17599   MPKI: 0.497684
L1D PREFETCH  ACCESS:     773480  HIT:      10217  MISS:     763263  HIT %:    1.32091  MISS %:    98.6791   MPKI: 3.76643
L1D WRITEBACK ACCESS:          0  HIT:          0  MISS:          0  HIT %:       -nan  MISS %:       -nan   MPKI: 0
L1I TOTAL     ACCESS:   38767647  HIT:   38750613  MISS:      17034  HIT %:    99.9561  MISS %:  0.0439387   MPKI: 0.0840568
L1I LOAD      ACCESS:   38767647  HIT:   38750613  MISS:      17034  HIT %:    99.9561  MISS %:  0.0439387   MPKI: 0.0840568
L1I RFO       ACCESS:          0  HIT:          0  MISS:          0  HIT %:       -nan  MISS %:       -nan   MPKI: 0
L1I PREFETCH  ACCESS:          0  HIT:          0  MISS:          0  HIT %:       -nan  MISS %:       -nan   MPKI: 0
L1I WRITEBACK ACCESS:          0  HIT:          0  MISS:          0  HIT %:       -nan  MISS %:       -nan   MPKI: 0
L2C TOTAL     ACCESS:    9268566  HIT:    7019047  MISS:    2249519  HIT %:    75.7296  MISS %:    24.2704   MPKI: 11.1006
L2C LOAD      ACCESS:    1283685  HIT:     372834  MISS:     910851  HIT %:     29.044  MISS %:     70.956   MPKI: 4.49473
L2C RFO       ACCESS:     100840  HIT:      70283  MISS:      30557  HIT %:    69.6975  MISS %:    30.3025   MPKI: 0.150788
L2C PREFETCH  ACCESS:    1207278  HIT:      89949  MISS:    1117329  HIT %:    7.45056  MISS %:    92.5494   MPKI: 5.51363
L2C WRITEBACK ACCESS:     169891  HIT:     166251  MISS:       3640  HIT %:    97.8574  MISS %:    2.14255   MPKI: 0.0179621
PSCL5 TOTAL     ACCESS:    5899268  HIT:    5899268  MISS:          0  HIT %:        100  MISS %:          0   MPKI: 0
PSCL5 LOAD      ACCESS:          0  HIT:          0  MISS:          0  HIT %:       -nan  MISS %:       -nan   MPKI: 0
PSCL5 RFO       ACCESS:          0  HIT:          0  MISS:          0  HIT %:       -nan  MISS %:       -nan   MPKI: 0
PSCL5 PREFETCH  ACCESS:          0  HIT:          0  MISS:          0  HIT %:       -nan  MISS %:       -nan   MPKI: 0
PSCL5 WRITEBACK ACCESS:          0  HIT:          0  MISS:          0  HIT %:       -nan  MISS %:       -nan   MPKI: 0
PSCL4 TOTAL     ACCESS:    5899268  HIT:    5899268  MISS:          0  HIT %:        100  MISS %:          0   MPKI: 0
PSCL4 LOAD      ACCESS:          0  HIT:          0  MISS:          0  HIT %:       -nan  MISS %:       -nan   MPKI: 0
PSCL4 RFO       ACCESS:          0  HIT:          0  MISS:          0  HIT %:       -nan  MISS %:       -nan   MPKI: 0
PSCL4 PREFETCH  ACCESS:          0  HIT:          0  MISS:          0  HIT %:       -nan  MISS %:       -nan   MPKI: 0
PSCL4 WRITEBACK ACCESS:          0  HIT:          0  MISS:          0  HIT %:       -nan  MISS %:       -nan   MPKI: 0
PSCL3 TOTAL     ACCESS:    5898575  HIT:    5898476  MISS:         99  HIT %:    99.9983  MISS %: 0.00167837   MPKI: 0.00048853
PSCL3 LOAD      ACCESS:          0  HIT:          0  MISS:          0  HIT %:       -nan  MISS %:       -nan   MPKI: 0
PSCL3 RFO       ACCESS:          0  HIT:          0  MISS:          0  HIT %:       -nan  MISS %:       -nan   MPKI: 0
PSCL3 PREFETCH  ACCESS:          0  HIT:          0  MISS:          0  HIT %:       -nan  MISS %:       -nan   MPKI: 0
PSCL3 WRITEBACK ACCESS:          0  HIT:          0  MISS:          0  HIT %:       -nan  MISS %:       -nan   MPKI: 0
PSCL2 TOTAL     ACCESS:    5899268  HIT:    5291715  MISS:     607553  HIT %:    89.7012  MISS %:    10.2988   MPKI: 2.99806
PSCL2 LOAD      ACCESS:          0  HIT:          0  MISS:          0  HIT %:       -nan  MISS %:       -nan   MPKI: 0
PSCL2 RFO       ACCESS:          0  HIT:          0  MISS:          0  HIT %:       -nan  MISS %:       -nan   MPKI: 0
PSCL2 PREFETCH  ACCESS:          0  HIT:          0  MISS:          0  HIT %:       -nan  MISS %:       -nan   MPKI: 0
PSCL2 WRITEBACK ACCESS:          0  HIT:          0  MISS:          0  HIT %:       -nan  MISS %:       -nan   MPKI: 0
=== CPU 0 L1D Prefetcher Statistics ===
[MLOP] History of tracked zone:
IIIIIIIIIIIIIIIIIIIIIIIIIIIIIIIIIIIIIIIIIIIIIIIIIIIIIIIIIIIIIIII
IIIIIIIIIIIIIIIIIIIIIIIIIIIIIAIIIIIIIIIIIIIIIIIIIIIIIIIIIIIIIIII
IIIIIIIIAIIIIIIIIIIIIIIIIIIIIIIIIIIIIIIIIIIIIIIIIIIIIIIIIIIIIIII
IIAIIIIIIIIIIIIIIIIIIIIIIIIIIIIIIIIIIIIIIIIIIIIIIIIIIIIIIIIIIIII
IIAA1IIIIIIIIIIIIIIIIIIIIIIIIIIIIIIIIIIIIIIIIIIIIIIIIIIIIIIIIIII
IIAA1IIA1IIIIIIIIIIIIIIIIIIIIIIIIIIIIIIIIIIIIIIIIIIIIIIIIIIIIIII
IIIIIIIIIIIIIIIIIIIIIIIIIIIIIIIIIIIIIIIIIIIIIIIIIIIIA2IIIIIIIIII
IIIIIIIIIIIIIIIIIIIIIIIIIIIIIIIIIIIIIIIIIIIIIIIIIIIIA2IIIIIA2III
IIIIIIIIIIIIIIIIIIIIIIIIIIIIIAIIIIIIIIIIIIIIIIIIIIIIIIIIIIIIIIII
IIIIIIIIIIIIIIIIIIIIIIIIIIIIIIIIIIIIIIIIIIIIIIIIIIIIIIIIIIIIA1II
IIIIIIIIIIIIIIIIIIIIIIIIIIIIA1IIIIIIIIIIIIIIIIIIIIIIIIIIIIIIA1II
IIIIIIIIIIIIIIIIIIIIIIIIIIIIIIIIIIIIIIIIIIIIIIIIIIIIIA2IIIIIIIII
IIIIIIIIIIIIIIIIIIIIIIIIIIIIIIIIIIIIIIIIIIIIIIIIIIIIIIIIIIIA1III
IAIIIIIIIIIIIIIIIIIIIIIIIIIIIIIIIIIIIIIIIIIIIIIIIIIIIIIIIIIIIIII
IA1IIIIIIIIIIIIIIIIIIIIIIIIIIIIIIIIIIIIIIIIIIIIIIIIIIIIIIIIIIIII
IIIIIIIIIIIIIIIIIIIIIIIIIIIIIIIIA2IIIIIIIIIIIIIIIIIIIIIIIIIIIIII
IIIIIIIIIIIIIIIIIIIIIIIIIIIIIIIIIIIIIIIIIIIA2IIIIIIIIIIIIIIIIIII
IIIIIIIIIIIIIIIIIIIIIIIIIIIIIIIIIIIIIIIIIIIA2IIA122IIIIIIIIIIIII
IIIIIA122IIIIIIIIIIIIIIIIIIIIIIIIIIIIIIIIIIA2IIA122IIIIIIIIIIIII
IA122A122IIIIIIIIIIIIIIIIIIIIIIIIIIIIIIIIIIA2IIA122IIIIIIIIIIIII
IIIIIIIIIA1IIIIIIIIIIIIIIIIIIIIIIIIIIIIIIIIIIIIIIIIIIIIIIIIIIIII
IIIIIIIIIIIIIIIIIIIIA1IIIIIIIIIIIIIIIIIIIIIIIIIIIIIIIIIIIIIIIIII
IIIIIIIIIIIIIIIIIIIIA1IIIIIIIIIIIIIIIIIA1IIIIIIIIIIIIIIIIIIIIIII
IIIIIIIIIIIIIIIIIIIIA1IIIIIIIA1IIIIIIIIA1IIIIIIIIIIIIIIIIIIIIIII
IIIIIIIIA1IIIIIIIIIIIIIIIIIIIIIIIIIIIIIIIIIIIIIIIIIIIIIIIIIIIIII
IIA1IIIIIIIIIIIIIIIIIIIIIIIIIIIIIIIIIIIIIIIIIIIIIIIIIIIIIIIIIIII
IIAA1IIIIIIIIIIIIIIIIIIIIIIIIIIIIIIIIIIIIIIIIIIIIIIIIIIIIIIIIIII
IIAA1IIA1IIIIIIIIIIIIIIIIIIIIIIIIIIIIIIIIIIIIIIIIIIIIIIIIIIIIIII
IIIIIIIIIIIIIIIIIIIIIIIIIIIIIIIIIIIIIIIIIIIIIIIIIIIIA1IIIIIIIIII
IIIIIIIIIIIIIIIIIIIIIIIIIIIIIIIIIIIIIIIIIIIIIIIIIIIIA1IIIIIA1III
IIIIIIIIIIIIIIIIIIIIIIIIIIIIIAIIIIIIIIIIIIIIIIIIIIIIIIIIIIIIIIII
IIIIIIIIIIIIIIIIIIIIIIIIIIIIIIIIIIIIIIIIIIIIIIIIIIIIIIIIIIIIA1II
IIIIIIIIIIIIIIIIIIIIIIIIIIIIA1IIIIIIIIIIIIIIIIIIIIIIIIIIIIIIA1II
IIIIIIIIIIIIIIIIIIIIIIIIIIIIIIIIIIIIIIIIIIIIIIIIIIIIIAIIIIIIIIII
IIIIIIIIIIIIIIIIIIIIIIIIIIIIIIIIIIIIIIIIIIIIIIIIIIIIIIIIIIIA1III
IAIIIIIIIIIIIIIIIIIIIIIIIIIIIIIIIIIIIIIIIIIIIIIIIIIIIIIIIIIIIIII
IA1IIIIIIIIIIIIIIIIIIIIIIIIIIIIIIIIIIIIIIIIIIIIIIIIIIIIIIIIIIIII
IIIIIIIIIIIIIIIIIIIIIIIIIIIIIIIIAIIIIIIIIIIIIIIIIIIIIIIIIIIIIIII
IIIIIIIIIIIIIIIIIIIIIIIIIIIIIIIIIIIIIIIIIIIAIIIIIIIIIIIIIIIIIIII
IIIIIIIIIIIIIIIIIIIIIIIIIIIIIIIIIIIIIIIIIIIAIIIAIIIIIIIIIIIIIIII
IIIIIAIIIIIIIIIIIIIIIIIIIIIIIIIIIIIIIIIIIIIAIIIAIIIIIIIIIIIIIIII
IAIIIAIIIIIIIIIIIIIIIIIIIIIIIIIIIIIIIIIIIIIAIIIAIIIIIIIIIIIIIIII
IIIIIIIIIAIIIIIIIIIIIIIIIIIIIIIIIIIIIIIIIIIIIIIIIIIIIIIIIIIIIIII
IIIIIIIIIIIIIIIIIIIIA2IIIIIIIIIIIIIIIIIIIIIIIIIIIIIIIIIIIIIIIIII
IIIIIIIIIIIIIIIIIIIIA2IIIIIIIIIIIIIIIIIA2IIIIIIIIIIIIIIIIIIIIIII
IIIIIIIIIIIIIIIIIIIIA2IIIIIIIA1IIIIIIIIA2IIIIIIIIIIIIIIIIIIIIIII
IIIIIIIIAIIIIIIIIIIIIIIIIIIIIIIIIIIIIIIIIIIIIIIIIIIIIIIIIIIIIIII
IIAIIIIIIIIIIIIIIIIIIIIIIIIIIIIIIIIIIIIIIIIIIIIIIIIIIIIIIIIIIIII
IIAA1IIIIIIIIIIIIIIIIIIIIIIIIIIIIIIIIIIIIIIIIIIIIIIIIIIIIIIIIIII
IIAA1IIA1IIIIIIIIIIIIIIIIIIIIIIIIIIIIIIIIIIIIIIIIIIIIIIIIIIIIIII
IIIIIIIIIIIIIIIIIIIIIIIIIIIIIIIIIIIIIIIIIIIIIIIIIIIIAIIIIIIIIIII
IIIIIIIIIIIIIIIIIIIIIIIIIIIIIIIIIIIIIIIIIIIIIIIIIIIIAIIIIIIAIIII
IIIIIIIIIIIIIIIIIIIIIIIIIIIIIA1IIIIIIIIIIIIIIIIIIIIIIIIIIIIIIIII
IIIIIIIIIIIIIIIIIIIIIIIIIIIIIIIIIIIIIIIIIIIIIIIIIIIIIIIIIIIIA1II
IIIIIIIIIIIIIIIIIIIIIIIIIIIIA1IIIIIIIIIIIIIIIIIIIIIIIIIIIIIIA1II
IIIIIIIIIIIIIIIIIIIIIIIIIIIIIIIIIIIIIIIIIIIIIIIIIIIIIA1IIIIIIIII
IIIIIIIIIIIIIIIIIIIIIIIIIIIIIIIIIIIIIIIIIIIIIIIIIIIIIIIIIIIAIIII
IA1IIIIIIIIIIIIIIIIIIIIIIIIIIIIIIIIIIIIIIIIIIIIIIIIIIIIIIIIIIIII
IAIIIIIIIIIIIIIIIIIIIIIIIIIIIIIIIIIIIIIIIIIIIIIIIIIIIIIIIIIIIIII
IIIIIIIIIIIIIIIIIIIIIIIIIIIIIIIIA1IIIIIIIIIIIIIIIIIIIIIIIIIIIIII
IIIIIIIIIIIIIIIIIIIIIIIIIIIIIIIIIIIIIIIIIIIA1IIIIIIIIIIIIIIIIIII
IIIIIIIIIIIIIIIIIIIIIIIIIIIIIIIIIIIIIIIIIIIA1IIA1IIIIIIIIIIIIIII
IIIIIA1IIIIIIIIIIIIIIIIIIIIIIIIIIIIIIIIIIIIA1IIA1IIIIIIIIIIIIIII
IA1IIA1IIIIIIIIIIIIIIIIIIIIIIIIIIIIIIIIIIIIA1IIA1IIIIIIIIIIIIIII
IIIIIIIIIA2IIIIIIIIIIIIIIIIIIIIIIIIIIIIIIIIIIIIIIIIIIIIIIIIIIIII
IIIIIIIIIIIIIIIIIIIIA2IIIIIIIIIIIIIIIIIIIIIIIIIIIIIIIIIIIIIIIIII
IIIIIIIIIIIIIIIIIIIIA2IIIIIIIIIIIIIIIIIA2IIIIIIIIIIIIIIIIIIIIIII
IIIIIIIIIIIIIIIIIIIIA2IIIIIIIA2IIIIIIIIA2IIIIIIIIIIIIIIIIIIIIIII
IIIIIIIIA1IIIIIIIIIIIIIIIIIIIIIIIIIIIIIIIIIIIIIIIIIIIIIIIIIIIIII
IIAIIIIIIIIIIIIIIIIIIIIIIIIIIIIIIIIIIIIIIIIIIIIIIIIIIIIIIIIIIIII
IIAAIIIIIIIIIIIIIIIIIIIIIIIIIIIIIIIIIIIIIIIIIIIIIIIIIIIIIIIIIIII
IIAAIIIAIIIIIIIIIIIIIIIIIIIIIIIIIIIIIIIIIIIIIIIIIIIIIIIIIIIIIIII
IIIIIIIIIIIIIIIIIIIIIIIIIIIIIIIIIIIIIIIIIIIIIIIIIIIIA1IIIIIIIIII
IIIIIIIIIIIIIIIIIIIIIIIIIIIIIIIIIIIIIIIIIIIIIIIIIIIIA1IIIIIA1III
IIIIIIIIIIIIIIIIIIIIIIIIIIIIIAIIIIIIIIIIIIIIIIIIIIIIIIIIIIIIIIII
IIIIIIIIIIIIIIIIIIIIIIIIIIIIIIIIIIIIIIIIIIIIIIIIIIIIIIIIIIIIA1II
IIIIIIIIIIIIIIIIIIIIIIIIIIIIA1IIIIIIIIIIIIIIIIIIIIIIIIIIIIIIA1II
IIIIIIIIIIIIIIIIIIIIIIIIIIIIIIIIIIIIIIIIIIIIIIIIIIIIIAIIIIIIIIII
IIIIIIIIIIIIIIIIIIIIIIIIIIIIIIIIIIIIIIIIIIIIIIIIIIIIIIIIIIIA1III
IAIIIIIIIIIIIIIIIIIIIIIIIIIIIIIIIIIIIIIIIIIIIIIIIIIIIIIIIIIIIIII
IIIIIIIIIIIIIIIIIIIIIIIIIIIIIIIIA1IIIIIIIIIIIIIIIIIIIIIIIIIIIIII
IIIIIIIIIIIIIIIIIIIIIIIIIIIIIIIIIIIIIIIIIIIA1IIIIIIIIIIIIIIIIIII
IIIIIIIIIIIIIIIIIIIIIIIIIIIIIIIIIIIIIIIIIIIA1IIA1IIIIIIIIIIIIIII
IIIIIA1IIIIIIIIIIIIIIIIIIIIIIIIIIIIIIIIIIIIA1IIA1IIIIIIIIIIIIIII
IA1IIA1IIIIIIIIIIIIIIIIIIIIIIIIIIIIIIIIIIIIA1IIA1IIIIIIIIIIIIIII
IIIIIIIIIA2IIIIIIIIIIIIIIIIIIIIIIIIIIIIIIIIIIIIIIIIIIIIIIIIIIIII
IIIIIIIIIIIIIIIIIIIIAIIIIIIIIIIIIIIIIIIIIIIIIIIIIIIIIIIIIIIIIIII
IIIIIIIIIIIIIIIIIIIIAIIIIIIIIIIIIIIIIIIA1IIIIIIIIIIIIIIIIIIIIIII
IIIIIIIIIIIIIIIIIIIIAIIIIIIIIA1IIIIIIIIA1IIIIIIIIIIIIIIIIIIIIIII
IIIIIIIIAIIIIIIIIIIIIIIIIIIIIIIIIIIIIIIIIIIIIIIIIIIIIIIIIIIIIIII
IIA1IIIIIIIIIIIIIIIIIIIIIIIIIIIIIIIIIIIIIIIIIIIIIIIIIIIIIIIIIIII
IIAA1IIIIIIIIIIIIIIIIIIIIIIIIIIIIIIIIIIIIIIIIIIIIIIIIIIIIIIIIIII
IIAA1IIA1IIIIIIIIIIIIIIIIIIIIIIIIIIIIIIIIIIIIIIIIIIIIIIIIIIIIIII
IIIIIIIIIIIIIIIIIIIIIIIIIIIIIIIIIIIIIIIIIIIIIIIIIIIIA2IIIIIIIIII
IIIIIIIIIIIIIIIIIIIIIIIIIIIIIIIIIIIIIIIIIIIIIIIIIIIIA2IIIIIA2III
IIIIIIIIIIIIIIIIIIIIIIIIIIIIIA1IIIIIIIIIIIIIIIIIIIIIIIIIIIIIIIII
IIIIIIIIIIIIIIIIIIIIIIIIIIIIIIIIIIIIIIIIIIIIIIIIIIIIIIIIIIIIA1II
IIIIIIIIIIIIIIIIIIIIIIIIIIIIA1IIIIIIIIIIIIIIIIIIIIIIIIIIIIIIA1II
IIIIIIIIIIIIIIIIIIIIIIIIIIIIIIIIIIIIIIIIIIIIIIIIIIIIIA1IIIIIIIII
IIIIIIIIIIIIIIIIIIIIIIIIIIIIIIIIIIIIIIIIIIIIIIIIIIIIIIIIIIIAIIII
IA1IIIIIIIIIIIIIIIIIIIIIIIIIIIIIIIIIIIIIIIIIIIIIIIIIIIIIIIIIIIII
IAIIIIIIIIIIIIIIIIIIIIIIIIIIIIIIIIIIIIIIIIIIIIIIIIIIIIIIIIIIIIII
IIIIIIIIIIIIIIIIIIIIIIIIIIIIIIIIA1IIIIIIIIIIIIIIIIIIIIIIIIIIIIII
IIIIIIIIIIIIIIIIIIIIIIIIIIIIIIIIIIIIIIIIIIIA1IIIIIIIIIIIIIIIIIII
IIIIIIIIIIIIIIIIIIIIIIIIIIIIIIIIIIIIIIIIIIIA1IIA1IIIIIIIIIIIIIII
IIIIIA1IIIIIIIIIIIIIIIIIIIIIIIIIIIIIIIIIIIIA1IIA1IIIIIIIIIIIIIII
IA1IIA1IIIIIIIIIIIIIIIIIIIIIIIIIIIIIIIIIIIIA1IIA1IIIIIIIIIIIIIII
IIIIIIIIIA1IIIIIIIIIIIIIIIIIIIIIIIIIIIIIIIIIIIIIIIIIIIIIIIIIIIII
IIIIIIIIIIIIIIIIIIIIA1IIIIIIIIIIIIIIIIIIIIIIIIIIIIIIIIIIIIIIIIII
IIIIIIIIIIIIIIIIIIIIA1IIIIIIIIIIIIIIIIIA2IIIIIIIIIIIIIIIIIIIIIII
IIIIIIIIIIIIIIIIIIIIA1IIIIIIIA2IIIIIIIIA2IIIIIIIIIIIIIIIIIIIIIII
IIIIIIIIA1IIIIIIIIIIIIIIIIIIIIIIIIIIIIIIIIIIIIIIIIIIIIIIIIIIIIII
IIA1IIIIIIIIIIIIIIIIIIIIIIIIIIIIIIIIIIIIIIIIIIIIIIIIIIIIIIIIIIII
IIAA2IIIIIIIIIIIIIIIIIIIIIIIIIIIIIIIIIIIIIIIIIIIIIIIIIIIIIIIIIII
IIAA2IIA2IIIIIIIIIIIIIIIIIIIIIIIIIIIIIIIIIIIIIIIIIIIIIIIIIIIIIII
IIIIIIIIIIIIIIIIIIIIIIIIIIIIIIIIIIIIIIIIIIIIIIIIIIIIA1IIIIIIIIII
IIIIIIIIIIIIIIIIIIIIIIIIIIIIIIIIIIIIIIIIIIIIIIIIIIIIA1IIIIIA1III
IIIIIIIIIIIIIIIIIIIIIIIIIIIIIAIIIIIIIIIIIIIIIIIIIIIIIIIIIIIIIIII
IIIIIIIIIIIIIIIIIIIIIIIIIIIIIIIIIIIIIIIIIIIIIIIIIIIIIIIIIIIIA1II
IIIIIIIIIIIIIIIIIIIIIIIIIIIIA1IIIIIIIIIIIIIIIIIIIIIIIIIIIIIIA1II
IIIIIIIIIIIIIIIIIIIIIIIIIIIIIIIIIIIIIIIIIIIIIIIIIIIIIA2IIIIIIIII
IIIIIIIIIIIIIIIIIIIIIIIIIIIIIIIIIIIIIIIIIIIIIIIIIIIIIIIIIIIA1III
IAIIIIIIIIIIIIIIIIIIIIIIIIIIIIIIIIIIIIIIIIIIIIIIIIIIIIIIIIIIIIII
IIIIIIIIIIIIIIIIIIIIIIIIIIIIIIIIA1IIIIIIIIIIIIIIIIIIIIIIIIIIIIII
IIIIIIIIIIIIIIIIIIIIIIIIIIIIIIIIIIIIIIIIIIIAIIIIIIIIIIIIIIIIIIII
IIIIIIIIIIIIIIIIIIIIIIIIIIIIIIIIIIIIIIIIIIIAIIIA1IIIIIIIIIIIIIII
IIIIIA1IIIIIIIIIIIIIIIIIIIIIIIIIIIIIIIIIIIIAIIIA1IIIIIIIIIIIIIII
IA1IIA1IIIIIIIIIIIIIIIIIIIIIIIIIIIIIIIIIIIIAIIIA1IIIIIIIIIIIIIII
IIIIIIIIIA1IIIIIIIIIIIIIIIIIIIIIIIIIIIIIIIIIIIIIIIIIIIIIIIIIIIII
IIIIIIIIIIIIIIIIIIIIA1IIIIIIIIIIIIIIIIIIIIIIIIIIIIIIIIIIIIIIIIII
IIIIIIIIIIIIIIIIIIIIA1IIIIIIIIIIIIIIIIIA1IIIIIIIIIIIIIIIIIIIIIII
IIIIIIIIIIIIIIIIIIIIA1IIIIIIIA1IIIIIIIIA1IIIIIIIIIIIIIIIIIIIIIII
IIIIIIIIAIIIIIIIIIIIIIIIIIIIIIIIIIIIIIIIIIIIIIIIIIIIIIIIIIIIIIII
IIA1IIIIIIIIIIIIIIIIIIIIIIIIIIIIIIIIIIIIIIIIIIIIIIIIIIIIIIIIIIII
IIAA1IIIIIIIIIIIIIIIIIIIIIIIIIIIIIIIIIIIIIIIIIIIIIIIIIIIIIIIIIII
IIAA1IIA1IIIIIIIIIIIIIIIIIIIIIIIIIIIIIIIIIIIIIIIIIIIIIIIIIIIIIII
IIIIIIIIIIIIIIIIIIIIIIIIIIIIIIIIIIIIIIIIIIIIIIIIIIIIA2IIIIIIIIII
IIIIIIIIIIIIIIIIIIIIIIIIIIIIIIIIIIIIIIIIIIIIIIIIIIIIA2IIIIIA2III
IIIIIIIIIIIIIIIIIIIIIIIIIIIIIA1IIIIIIIIIIIIIIIIIIIIIIIIIIIIIIIII
IIIIIIIIIIIIIIIIIIIIIIIIIIIIIIIIIIIIIIIIIIIIIIIIIIIIIIIIIIIIAIII
IIIIIIIIIIIIIIIIIIIIIIIIIIIIAIIIIIIIIIIIIIIIIIIIIIIIIIIIIIIIAIII
IIIIIIIIIIIIIIIIIIIIIIIIIIIIIIIIIIIIIIIIIIIIIIIIIIIIIA1IIIIIIIII
IIIIIIIIIIIIIIIIIIIIIIIIIIIIIIIIIIIIIIIIIIIIIIIIIIIIIIIIIIIA1III
IA2IIIIIIIIIIIIIIIIIIIIIIIIIIIIIIIIIIIIIIIIIIIIIIIIIIIIIIIIIIIII
IA1IIIIIIIIIIIIIIIIIIIIIIIIIIIIIIIIIIIIIIIIIIIIIIIIIIIIIIIIIIIII
IIIIIIIIIIIIIIIIIIIIIIIIIIIIIIIIA2IIIIIIIIIIIIIIIIIIIIIIIIIIIIII
IIIIIIIIIIIIIIIIIIIIIIIIIIIIIIIIIIIIIIIIIIIA1IIIIIIIIIIIIIIIIIII
IIIIIIIIIIIIIIIIIIIIIIIIIIIIIIIIIIIIIIIIIIIA1IIA2IIIIIIIIIIIIIII
IIIIIA2IIIIIIIIIIIIIIIIIIIIIIIIIIIIIIIIIIIIA1IIA2IIIIIIIIIIIIIII
IA2IIA2IIIIIIIIIIIIIIIIIIIIIIIIIIIIIIIIIIIIA1IIA2IIIIIIIIIIIIIII
IIIIIIIIIA1IIIIIIIIIIIIIIIIIIIIIIIIIIIIIIIIIIIIIIIIIIIIIIIIIIIII
IIIIIIIIIIIIIIIIIIIIA1IIIIIIIIIIIIIIIIIIIIIIIIIIIIIIIIIIIIIIIIII
IIIIIIIIIIIIIIIIIIIIA1IIIIIIIIIIIIIIIIIA1IIIIIIIIIIIIIIIIIIIIIII
IIIIIIIIIIIIIIIIIIIIA1IIIIIIIA1IIIIIIIIA1IIIIIIIIIIIIIIIIIIIIIII
IIIIIIIIA1IIIIIIIIIIIIIIIIIIIIIIIIIIIIIIIIIIIIIIIIIIIIIIIIIIIIII
IIA1IIIIIIIIIIIIIIIIIIIIIIIIIIIIIIIIIIIIIIIIIIIIIIIIIIIIIIIIIIII
IIAA2IIIIIIIIIIIIIIIIIIIIIIIIIIIIIIIIIIIIIIIIIIIIIIIIIIIIIIIIIII
IIAA2IIA2IIIIIIIIIIIIIIIIIIIIIIIIIIIIIIIIIIIIIIIIIIIIIIIIIIIIIII
IIIIIIIIIIIIIIIIIIIIIIIIIIIIIIIIIIIIIIIIIIIIIIIIIIIIA1IIIIIIIIII
IIIIIIIIIIIIIIIIIIIIIIIIIIIIIIIIIIIIIIIIIIIIIIIIIIIIA1IIIIIA1III
IIIIIIIIIIIIIIIIIIIIIIIIIIIIIA1IIIIIIIIIIIIIIIIIIIIIIIIIIIIIIIII
IIIIIIIIIIIIIIIIIIIIIIIIIIIIIIIIIIIIIIIIIIIIIIIIIIIIIIIIIIIIA2II
IIIIIIIIIIIIIIIIIIIIIIIIIIIIA1IIIIIIIIIIIIIIIIIIIIIIIIIIIIIIA2II
IIIIIIIIIIIIIIIIIIIIIIIIIIIIIIIIIIIIIIIIIIIIIIIIIIIIIA1IIIIIIIII
IIIIIIIIIIIIIIIIIIIIIIIIIIIIIIIIIIIIIIIIIIIIIIIIIIIIIIIIIIIA2III
IA2IIIIIIIIIIIIIIIIIIIIIIIIIIIIIIIIIIIIIIIIIIIIIIIIIIIIIIIIIIIII
IIIIIIIIIIIIIIIIIIIIIIIIIIIIIIIIA1IIIIIIIIIIIIIIIIIIIIIIIIIIIIII
IIIIIIIIIIIIIIIIIIIIIIIIIIIIIIIIIIIIIIIIIIIA1IIIIIIIIIIIIIIIIIII
IIIIIIIIIIIIIIIIIIIIIIIIIIIIIIIIIIIIIIIIIIIA1IIA2IIIIIIIIIIIIIII
IIIIIA2IIIIIIIIIIIIIIIIIIIIIIIIIIIIIIIIIIIIA1IIA2IIIIIIIIIIIIIII
IA2IIA2IIIIIIIIIIIIIIIIIIIIIIIIIIIIIIIIIIIIA1IIA2IIIIIIIIIIIIIII
IIIIIIIIIA2IIIIIIIIIIIIIIIIIIIIIIIIIIIIIIIIIIIIIIIIIIIIIIIIIIIII
IIIIIIIIIIIIIIIIIIIIA1IIIIIIIIIIIIIIIIIIIIIIIIIIIIIIIIIIIIIIIIII
IIIIIIIIIIIIIIIIIIIIA1IIIIIIIIIIIIIIIIIA1IIIIIIIIIIIIIIIIIIIIIII
IIIIIIIIIIIIIIIIIIIIA1IIIIIIIA2IIIIIIIIA1IIIIIIIIIIIIIIIIIIIIIII
IIIIIIIIA2IIIIIIIIIIIIIIIIIIIIIIIIIIIIIIIIIIIIIIIIIIIIIIIIIIIIII
IIA1IIIIIIIIIIIIIIIIIIIIIIIIIIIIIIIIIIIIIIIIIIIIIIIIIIIIIIIIIIII
IIAA1IIIIIIIIIIIIIIIIIIIIIIIIIIIIIIIIIIIIIIIIIIIIIIIIIIIIIIIIIII
IIAA1IIA1IIIIIIIIIIIIIIIIIIIIIIIIIIIIIIIIIIIIIIIIIIIIIIIIIIIIIII
IIIIIIIIIIIIIIIIIIIIIIIIIIIIIIIIIIIIIIIIIIIIIIIIIIIIA1IIIIIIIIII
IIIIIIIIIIIIIIIIIIIIIIIIIIIIIIIIIIIIIIIIIIIIIIIIIIIIA1IIIIIA1III
IIIIIIIIIIIIIIIIIIIIIIIIIIIIIA1IIIIIIIIIIIIIIIIIIIIIIIIIIIIIIIII
IIIIIIIIIIIIIIIIIIIIIIIIIIIIIIIIIIIIIIIIIIIIIIIIIIIIIIIIIIIIA2II
IIIIIIIIIIIIIIIIIIIIIIIIIIIIA2IIIIIIIIIIIIIIIIIIIIIIIIIIIIIIA2II
IIIIIIIIIIIIIIIIIIIIIIIIIIIIIIIIIIIIIIIIIIIIIIIIIIIIIA1IIIIIIIII
IIIIIIIIIIIIIIIIIIIIIIIIIIIIIIIIIIIIIIIIIIIIIIIIIIIIIIIIIIIA2III
IA1IIIIIIIIIIIIIIIIIIIIIIIIIIIIIIIIIIIIIIIIIIIIIIIIIIIIIIIIIIIII
IA2IIIIIIIIIIIIIIIIIIIIIIIIIIIIIIIIIIIIIIIIIIIIIIIIIIIIIIIIIIIII
IIIIIIIIIIIIIIIIIIIIIIIIIIIIIIIIA1IIIIIIIIIIIIIIIIIIIIIIIIIIIIII
IIIIIIIIIIIIIIIIIIIIIIIIIIIIIIIIIIIIIIIIIIIA2IIIIIIIIIIIIIIIIIII
IIIIIIIIIIIIIIIIIIIIIIIIIIIIIIIIIIIIIIIIIIIA2IIA1IIIIIIIIIIIIIII
IIIIIA1IIIIIIIIIIIIIIIIIIIIIIIIIIIIIIIIIIIIA2IIA1IIIIIIIIIIIIIII
IA1IIA1IIIIIIIIIIIIIIIIIIIIIIIIIIIIIIIIIIIIA2IIA1IIIIIIIIIIIIIII
IIIIIIIIIA2IIIIIIIIIIIIIIIIIIIIIIIIIIIIIIIIIIIIIIIIIIIIIIIIIIIII
IIIIIIIIIIIIIIIIIIIIA1IIIIIIIIIIIIIIIIIIIIIIIIIIIIIIIIIIIIIIIIII
IIIIIIIIIIIIIIIIIIIIA1IIIIIIIIIIIIIIIIIA1IIIIIIIIIIIIIIIIIIIIIII
IIIIIIIIIIIIIIIIIIIIA1IIIIIIIA1IIIIIIIIA1IIIIIIIIIIIIIIIIIIIIIII
IIIIIIIIA2IIIIIIIIIIIIIIIIIIIIIIIIIIIIIIIIIIIIIIIIIIIIIIIIIIIIII
IIA1IIIIIIIIIIIIIIIIIIIIIIIIIIIIIIIIIIIIIIIIIIIIIIIIIIIIIIIIIIII
IIAA1IIIIIIIIIIIIIIIIIIIIIIIIIIIIIIIIIIIIIIIIIIIIIIIIIIIIIIIIIII
IIAA1IIA1IIIIIIIIIIIIIIIIIIIIIIIIIIIIIIIIIIIIIIIIIIIIIIIIIIIIIII
IIIIIIIIIIIIIIIIIIIIIIIIIIIIIIIIIIIIIIIIIIIIIIIIIIIIA2IIIIIIIIII
IIIIIIIIIIIIIIIIIIIIIIIIIIIIIIIIIIIIIIIIIIIIIIIIIIIIA2IIIIIA2III
IIIIIIIIIIIIIIIIIIIIIIIIIIIIIA2IIIIIIIIIIIIIIIIIIIIIIIIIIIIIIIII
IIIIIIIIIIIIIIIIIIIIIIIIIIIIIIIIIIIIIIIIIIIIIIIIIIIIIIIIIIIIA1II
IIIIIIIIIIIIIIIIIIIIIIIIIIIIA1IIIIIIIIIIIIIIIIIIIIIIIIIIIIIIA1II
IIIIIIIIIIIIIIIIIIIIIIIIIIIIIIIIIIIIIIIIIIIIIIIIIIIIIA2IIIIIIIII
IIIIIIIIIIIIIIIIIIIIIIIIIIIIIIIIIIIIIIIIIIIIIIIIIIIIIIIIIIIA2III
IA2IIIIIIIIIIIIIIIIIIIIIIIIIIIIIIIIIIIIIIIIIIIIIIIIIIIIIIIIIIIII
IIIIIIIIIIIIIIIIIIIIIIIIIIIIIIIIA1IIIIIIIIIIIIIIIIIIIIIIIIIIIIII
IIIIIIIIIIIIIIIIIIIIIIIIIIIIIIIIIIIIIIIIIIIA1IIIIIIIIIIIIIIIIIII
IIIIIIIIIIIIIIIIIIIIIIIIIIIIIIIIIIIIIIIIIIIA1IIA1IIIIIIIIIIIIIII
IIIIIA1IIIIIIIIIIIIIIIIIIIIIIIIIIIIIIIIIIIIA1IIA1IIIIIIIIIIIIIII
IA1IIA1IIIIIIIIIIIIIIIIIIIIIIIIIIIIIIIIIIIIA1IIA1IIIIIIIIIIIIIII
IIIIIIIIIA2IIIIIIIIIIIIIIIIIIIIIIIIIIIIIIIIIIIIIIIIIIIIIIIIIIIII
IIIIIIIIIIIIIIIIIIIIA1IIIIIIIIIIIIIIIIIIIIIIIIIIIIIIIIIIIIIIIIII
IIIIIIIIIIIIIIIIIIIIA1IIIIIIIIIIIIIIIIIA1IIIIIIIIIIIIIIIIIIIIIII
IIIIIIIIIIIIIIIIIIIIA1IIIIIIIA1IIIIIIIIA1IIIIIIIIIIIIIIIIIIIIIII
IIIIIIIIA2IIIIIIIIIIIIIIIIIIIIIIIIIIIIIIIIIIIIIIIIIIIIIIIIIIIIII
IIA2IIIIIIIIIIIIIIIIIIIIIIIIIIIIIIIIIIIIIIIIIIIIIIIIIIIIIIIIIIII
IIAA2IIIIIIIIIIIIIIIIIIIIIIIIIIIIIIIIIIIIIIIIIIIIIIIIIIIIIIIIIII
IIAA2IIA2IIIIIIIIIIIIIIIIIIIIIIIIIIIIIIIIIIIIIIIIIIIIIIIIIIIIIII
IIIIIIIIIIIIIIIIIIIIIIIIIIIIIIIIIIIIIIIIIIIIIIIIIIIIA2IIIIIIIIII
IIIIIIIIIIIIIIIIIIIIIIIIIIIIIIIIIIIIIIIIIIIIIIIIIIIIA2IIIIIA2III
IIIIIIIIIIIIIIIIIIIIIIIIIIIIIA2IIIIIIIIIIIIIIIIIIIIIIIIIIIIIIIII
IIIIIIIIIIIIIIIIIIIIIIIIIIIIIIIIIIIIIIIIIIIIIIIIIIIIIIIIIIIIA2II
IIIIIIIIIIIIIIIIIIIIIIIIIIIIA2IIIIIIIIIIIIIIIIIIIIIIIIIIIIIIA2II
IIIIIIIIIIIIIIIIIIIIIIIIIIIIIIIIIIIIIIIIIIIIIIIIIIIIIA1IIIIIIIII
IIIIIIIIIIIIIIIIIIIIIIIIIIIIIIIIIIIIIIIIIIIIIIIIIIIIIIIIIIIA2III
IA2IIIIIIIIIIIIIIIIIIIIIIIIIIIIIIIIIIIIIIIIIIIIIIIIIIIIIIIIIIIII
IIIIIIIIIIIIIIIIIIIIIIIIIIIIIIIIA1IIIIIIIIIIIIIIIIIIIIIIIIIIIIII
IIIIIIIIIIIIIIIIIIIIIIIIIIIIIIIIIIIIIIIIIIIA2IIIIIIIIIIIIIIIIIII
IIIIIIIIIIIIIIIIIIIIIIIIIIIIIIIIIIIIIIIIIIIA2IIA2IIIIIIIIIIIIIII
IIIIIA2IIIIIIIIIIIIIIIIIIIIIIIIIIIIIIIIIIIIA2IIA2IIIIIIIIIIIIIII
IA2IIA2IIIIIIIIIIIIIIIIIIIIIIIIIIIIIIIIIIIIA2IIA2IIIIIIIIIIIIIII
IA111I1I11111III11IIIIIIIIIIIIIIIIIIIIIIIIIIIIIIIIIIIIIIIIIIIIII
IIIIIIIIIIIIIIIIIIIIIIIIIIIIIIIIIIIIIIIA1IIIIIIIIIIIIIIIIIIIIIII
IIIIIIIIIIIIIIIIIIIIIIIIIIIIIIIIIIIIIIIIIA1IIIIIIIIIIIIIIIIIIIII
IIIA1IIIIIIIIIIIIIIIIIIIIIIIIIIIIIIIIIIIIIIIIIIIIIIIIIIIIIIIIIII
IIIIIIIIIIIIIIIIIIIIIIIIIIIIIIIIIIIIIIIIIIIIIIIA1IIIIIIIIIIIIIII
IIIIIIIA2IIIIIIIIIIIIIIIIIIIIIIIIIIIIIIIIIIIIIIIIIIIIIIIIIIIIIII
IIIIIIIIIIIIIIIIIIIIIIIA1IIIIIIIIIIIIIIIIIIIIIIIIIIIIIIIIIIIIIII
IIIA1IIIIIIIIIIIIIIIIIIIIIIIIIIIIIIIIIIIIIIIIIIIIIIIIIIIIIIIIIII
IIIIIIIIIIIIIIIIIIIIIIIIIIIIIIIIIIIIIIIIIIIIIIIIIIIIIIIIIIIA1III
IIIIIIIIIIIIIIIIIIIIA2IIIIIIIIIIIIIIIIIIIIIIIIIIIIIIIIIIIIIIIIII
IIIIIIIIIIIIIIIIIIIIIIIIIIIIIIIIIIIIIIIIIIIA1IIIIIIIIIIIIIIIIIII
IIIIIA1IIIIIIIIIIIIIIIIIIIIIIIIIIIIIIIIIIIIIIIIIIIIIIIIIIIIIIIII
IIIIIIIIIIIIIIIIIIIIIIIIIIIIIIIIIIIIIIIIIIIIIIIIIIIIIIIIIIIA2III
IIIIIIIA2IIIIIIIIIIIIIIIIIIIIIIIIIIIIIIIIIIIIIIIIIIIIIIIIIIIIIII
IIIIIIIIIIIIIIIIIIIIIIIIIIIIIIIIIIIA1IIIIIIIIIIIIIIIIIIIIIIIIIII
IIIIIIIIIIIIIIIIIIIIIIIIIIIIIIIIIIIIIIIIIIA2IIIIIIIIIIIIIIIIIIII
IA1IIIIIIIIIIIIIIIIIIIIIIIIIIIIIIIIIIIIIIIIIIIIIIIIIIIIIIIIIIIII
IIIIIIIIIIIIIIIIIIIIIIIIIIIIIIIIIIIIIIIA2IIIIIIIIIIIIIIIIIIIIIII
IIIIIIIIIIIIIIIIIIIIIIIIIIIIIA2IIIIIIIIIIIIIIIIIIIIIIIIIIIIIIIII
IIIIIIIIA2IIIIIIIIIIIIIIIIIIIIIIIIIIIIIIIIIIIIIIIIIIIIIIIIIIIIII
IIA2IIIIIIIIIIIIIIIIIIIIIIIIIIIIIIIIIIIIIIIIIIIIIIIIIIIIIIIIIIII
IIAA1IIIIIIIIIIIIIIIIIIIIIIIIIIIIIIIIIIIIIIIIIIIIIIIIIIIIIIIIIII
IIAA1IIA1IIIIIIIIIIIIIIIIIIIIIIIIIIIIIIIIIIIIIIIIIIIIIIIIIIIIIII
IIIIIIIIIIIIIIIIIIIIIIIIIIIIIIIIIIIIIIIIIIIIIIIIIIIIA2IIIIIIIIII
IIIIIIIIIIIIIIIIIIIIIIIIIIIIIIIIIIIIIIIIIIIIIIIIIIIIA2IIIIIA2III
IIIIIIIIIIIIIIIIIIIIIIIIIIIIIA2IIIIIIIIIIIIIIIIIIIIIIIIIIIIIIIII
IIIIIIIIIIIIIIIIIIIIIIIIIIIIIIIIIIIIIIIIIIIIIIIIIIIIIIIIIIIIA1II
IIIIIIIIIIIIIIIIIIIIIIIIIIIIA1IIIIIIIIIIIIIIIIIIIIIIIIIIIIIIA1II
IIIIIIIIIIIIIIIIIIIIIIIIIIIIIIIIIIIIIIIIIIIIIIIIIIIIIA2IIIIIIIII
IIIIIIIIIIIIIIIIIIIIIIIIIIIIIIIIIIIIIIIIIIIIIIIIIIIIIIIIIIIA2III
IA1IIIIIIIIIIIIIIIIIIIIIIIIIIIIIIIIIIIIIIIIIIIIIIIIIIIIIIIIIIIII
IA2IIIIIIIIIIIIIIIIIIIIIIIIIIIIIIIIIIIIIIIIIIIIIIIIIIIIIIIIIIIII
IIIIIIIIIIIIIIIIIIIIIIIIIIIIIIIIA1IIIIIIIIIIIIIIIIIIIIIIIIIIIIII
IIIIIIIIIIIIIIIIIIIIIIIIIIIIIIIIIIIIIIIIIIIA1IIIIIIIIIIIIIIIIIII
IIIIIIIIIIIIIIIIIIIIIIIIIIIIIIIIIIIIIIIIIIIA1IIA1IIIIIIIIIIIIIII
IIIIIA1IIIIIIIIIIIIIIIIIIIIIIIIIIIIIIIIIIIIA1IIA1IIIIIIIIIIIIIII
IA1IIA1IIIIIIIIIIIIIIIIIIIIIIIIIIIIIIIIIIIIA1IIA1IIIIIIIIIIIIIII
IIIIIIIIIA1IIIIIIIIIIIIIIIIIIIIIIIIIIIIIIIIIIIIIIIIIIIIIIIIIIIII
IIIIIIIIIIIIIIIIIIIIA1IIIIIIIIIIIIIIIIIIIIIIIIIIIIIIIIIIIIIIIIII
IIIIIIIIIIIIIIIIIIIIA1IIIIIIIIIIIIIIIIIA1IIIIIIIIIIIIIIIIIIIIIII
IIIIIIIIIIIIIIIIIIIIA1IIIIIIIA1IIIIIIIIA1IIIIIIIIIIIIIIIIIIIIIII
IIIIIIIIA1IIIIIIIIIIIIIIIIIIIIIIIIIIIIIIIIIIIIIIIIIIIIIIIIIIIIII
IIA2IIIIIIIIIIIIIIIIIIIIIIIIIIIIIIIIIIIIIIIIIIIIIIIIIIIIIIIIIIII
IIAA2IIIIIIIIIIIIIIIIIIIIIIIIIIIIIIIIIIIIIIIIIIIIIIIIIIIIIIIIIII
IIAA2IIA2IIIIIIIIIIIIIIIIIIIIIIIIIIIIIIIIIIIIIIIIIIIIIIIIIIIIIII
IIIIIIIIIIIIIIIIIIIIIIIIIIIIIIIIIIIIIIIIIIIIIIIIIIIIA2IIIIIIIIII
IIIIIIIIIIIIIIIIIIIIIIIIIIIIIIIIIIIIIIIIIIIIIIIIIIIIA2IIIIIA2III
IIIIIIIIIIIIIIIIIIIIIIIIIIIIIA1IIIIIIIIIIIIIIIIIIIIIIIIIIIIIIIII
IIIIIIIIIIIIIIIIIIIIIIIIIIIIIIIIIIIIIIIIIIIIIIIIIIIIIIIIIIIIA1II
IIIIIIIIIIIIIIIIIIIIIIIIIIIIA1IIIIIIIIIIIIIIIIIIIIIIIIIIIIIIA1II
IIIIIIIIIIIIIIIIIIIIIIIIIIIIIIIIIIIIIIIIIIIIIIIIIIIIIA1IIIIIIIII
IIIIIIIIIIIIIIIIIIIIIIIIIIIIIIIIIIIIIIIIIIIIIIIIIIIIIIIIIIIA1III
IA2IIIIIIIIIIIIIIIIIIIIIIIIIIIIIIIIIIIIIIIIIIIIIIIIIIIIIIIIIIIII
IA1IIIIIIIIIIIIIIIIIIIIIIIIIIIIIIIIIIIIIIIIIIIIIIIIIIIIIIIIIIIII
IIIIIIIIIIIIIIIIIIIIIIIIIIIIIIIIA2IIIIIIIIIIIIIIIIIIIIIIIIIIIIII
IIIIIIIIIIIIIIIIIIIIIIIIIIIIIIIIIIIIIIIIIIIA2IIIIIIIIIIIIIIIIIII
IIIIIIIIIIIIIIIIIIIIIIIIIIIIIIIIIIIIIIIIIIIA2IIA1IIIIIIIIIIIIIII
IIIIIA1IIIIIIIIIIIIIIIIIIIIIIIIIIIIIIIIIIIIA2IIA1IIIIIIIIIIIIIII
IA1IIA1IIIIIIIIIIIIIIIIIIIIIIIIIIIIIIIIIIIIA2IIA1IIIIIIIIIIIIIII
IIIIIIIIIA1IIIIIIIIIIIIIIIIIIIIIIIIIIIIIIIIIIIIIIIIIIIIIIIIIIIII
IIIIIIIIIIIIIIIIIIIIA1IIIIIIIIIIIIIIIIIIIIIIIIIIIIIIIIIIIIIIIIII
IIIIIIIIIIIIIIIIIIIIA1IIIIIIIIIIIIIIIIIA1IIIIIIIIIIIIIIIIIIIIIII
IIIIIIIIIIIIIIIIIIIIA1IIIIIIIA1IIIIIIIIA1IIIIIIIIIIIIIIIIIIIIIII
IIIIIIIIA1IIIIIIIIIIIIIIIIIIIIIIIIIIIIIIIIIIIIIIIIIIIIIIIIIIIIII
IIA2IIIIIIIIIIIIIIIIIIIIIIIIIIIIIIIIIIIIIIIIIIIIIIIIIIIIIIIIIIII
IIAA2IIIIIIIIIIIIIIIIIIIIIIIIIIIIIIIIIIIIIIIIIIIIIIIIIIIIIIIIIII
IIAA2IIA2IIIIIIIIIIIIIIIIIIIIIIIIIIIIIIIIIIIIIIIIIIIIIIIIIIIIIII
IIIIIIIIIIIIIIIIIIIIIIIIIIIIIIIIIIIIIIIIIIIIIIIIIIIIA1IIIIIIIIII
IIIIIIIIIIIIIIIIIIIIIIIIIIIIIIIIIIIIIIIIIIIIIIIIIIIIA1IIIIIA2III
IIIIIIIIIIIIIIIIIIIIIIIIIIIIIA1IIIIIIIIIIIIIIIIIIIIIIIIIIIIIIIII
IIIIIIIIIIIIIIIIIIIIIIIIIIIIIIIIIIIIIIIIIIIIIIIIIIIIIIIIIIIIA1II
IIIIIIIIIIIIIIIIIIIIIIIIIIIIA1IIIIIIIIIIIIIIIIIIIIIIIIIIIIIIA1II
IIIIIIIIIIIIIIIIIIIIIIIIIIIIIIIIIIIIIIIIIIIIIIIIIIIIIA1IIIIIIIII
IIIIIIIIIIIIIIIIIIIIIIIIIIIIIIIIIIIIIIIIIIIIIIIIIIIIIIIIIIIA1III
IA2IIIIIIIIIIIIIIIIIIIIIIIIIIIIIIIIIIIIIIIIIIIIIIIIIIIIIIIIIIIII
IA1IIIIIIIIIIIIIIIIIIIIIIIIIIIIIIIIIIIIIIIIIIIIIIIIIIIIIIIIIIIII
IIIIIIIIIIIIIIIIIIIIIIIIIIIIIIIIA2IIIIIIIIIIIIIIIIIIIIIIIIIIIIII
IIIIIIIIIIIIIIIIIIIIIIIIIIIIIIIIIIIIIIIIIIIA2IIIIIIIIIIIIIIIIIII
IIIIIIIIIIIIIIIIIIIIIIIIIIIIIIIIIIIIIIIIIIIA2IIA2IIIIIIIIIIIIIII
IIIIIA2IIIIIIIIIIIIIIIIIIIIIIIIIIIIIIIIIIIIA2IIA2IIIIIIIIIIIIIII
IA2IIA2IIIIIIIIIIIIIIIIIIIIIIIIIIIIIIIIIIIIA2IIA2IIIIIIIIIIIIIII
IIIIIIIIIA1IIIIIIIIIIIIIIIIIIIIIIIIIIIIIIIIIIIIIIIIIIIIIIIIIIIII
IIIIIIIIIIIIIIIIIIIIA1II2IIIIIIIIIIIIIIIIIIIIIIIIIIIIIIIIIIIIIII
IIIIIIIIIIIIIIIIIIIIA1II2IIIIIIIIIIIIIIA1II2IIIIIIIIIIIIIIIIIIII
IIIIIIIIIIIIIIIIIIIIA1II2IIIIA2IIIIIIIIA1II2IIIIIIIIIIIIIIIIIIII
IIIIIIIIA1IIIIIIIIIIIIIIIIIIIIIIIIIIIIIIIIIIIIIIIIIIIIIIIIIIIIII
IIA1IIIIIIIIIIIIIIIIIIIIIIIIIIIIIIIIIIIIIIIIIIIIIIIIIIIIIIIIIIII
IIAA2IIIIIIIIIIIIIIIIIIIIIIIIIIIIIIIIIIIIIIIIIIIIIIIIIIIIIIIIIII
IIAA2IIA2IIIIIIIIIIIIIIIIIIIIIIIIIIIIIIIIIIIIIIIIIIIIIIIIIIIIIII
IIIIIIIIIIIIIIIIIIIIIIIIIIIIIIIIIIIIIIIIIIIIIIIIIIIIA1IIIIIIIIII
IIIIIIIIIIIIIIIIIIIIIIIIIIIIIIIIIIIIIIIIIIIIIIIIIIIIA1IIIIIA1III
IIIIIIIIIIIIIIIIIIIIIIIIIIIIIA1IIIIIIIIIIIIIIIIIIIIIIIIIIIIIIIII
IIIIIIIIIIIIIIIIIIIIIIIIIIIIIIIIIIIIIIIIIIIIIIIIIIIIIIIIIIIIA2II
IIIIIIIIIIIIIIIIIIIIIIIIIIIIA2IIIIIIIIIIIIIIIIIIIIIIIIIIIIIIA2II
IIIIIIIIIIIIIIIIIIIIIIIIIIIIIIIIIIIIIIIIIIIIIIIIIIIIIA1IIIIIIIII
IIIIIIIIIIIIIIIIIIIIIIIIIIIIIIIIIIIIIIIIIIIIIIIIIIIIIIIIIIIA2III
IA1IIIIIIIIIIIIIIIIIIIIIIIIIIIIIIIIIIIIIIIIIIIIIIIIIIIIIIIIIIIII
IIIIIIIIIIIIIIIIIIIIIIIIIIIIIIIIA2IIIIIIIIIIIIIIIIIIIIIIIIIIIIII
IIIIIIIIIIIIIIIIIIIIIIIIIIIIIIIIIIIIIIIIIIIAIIIIIIIIIIIIIIIIIIII
IIIIIIIIIIIIIIIIIIIIIIIIIIIIIIIIIIIIIIIIIIIAIIIA1IIIIIIIIIIIIIII
IIIIIA1IIIIIIIIIIIIIIIIIIIIIIIIIIIIIIIIIIIIAIIIA1IIIIIIIIIIIIIII
IA1IIA1IIIIIIIIIIIIIIIIIIIIIIIIIIIIIIIIIIIIAIIIA1IIIIIIIIIIIIIII
IIIIIIIIIA2IIIIIIIIIIIIIIIIIIIIIIIIIIIIIIIIIIIIIIIIIIIIIIIIIIIII
IIIIIIIIIIIIIIIIIIIIA2IIIIIIIIIIIIIIIIIIIIIIIIIIIIIIIIIIIIIIIIII
IIIIIIIIIIIIIIIIIIIIA2IIIIIIIIIIIIIIIIIA1IIIIIIIIIIIIIIIIIIIIIII
IIIIIIIIIIIIIIIIIIIIA2IIIIIIIA1IIIIIIIIA1IIIIIIIIIIIIIIIIIIIIIII
IIIIIIIIA2IIIIIIIIIIIIIIIIIIIIIIIIIIIIIIIIIIIIIIIIIIIIIIIIIIIIII
IIA1IIIIIIIIIIIIIIIIIIIIIIIIIIIIIIIIIIIIIIIIIIIIIIIIIIIIIIIIIIII
IIAA1IIIIIIIIIIIIIIIIIIIIIIIIIIIIIIIIIIIIIIIIIIIIIIIIIIIIIIIIIII
IIAA1IIA1IIIIIIIIIIIIIIIIIIIIIIIIIIIIIIIIIIIIIIIIIIIIIIIIIIIIIII
IIIIIIIIIIIIIIIIIIIIIIIIIIIIIIIIIIIIIIIIIIIIIIIIIIIIA1IIIIIIIIII
IIIIIIIIIIIIIIIIIIIIIIIIIIIIIIIIIIIIIIIIIIIIIIIIIIIIA1IIIIIA1III
IIIIIIIIIIIIIIIIIIIIIIIIIIIIIA2IIIIIIIIIIIIIIIIIIIIIIIIIIIIIIIII
IIIIIIIIIIIIIIIIIIIIIIIIIIIIIIIIIIIIIIIIIIIIIIIIIIIIIIIIIIIIA1II
IIIIIIIIIIIIIIIIIIIIIIIIIIIIA2IIIIIIIIIIIIIIIIIIIIIIIIIIIIIIA1II
IIIIIIIIIIIIIIIIIIIIIIIIIIIIIIIIIIIIIIIIIIIIIIIIIIIIIA2IIIIIIIII
IIIIIIIIIIIIIIIIIIIIIIIIIIIIIIIIIIIIIIIIIIIIIIIIIIIIIIIIIIIA2III
IA1IIIIIIIIIIIIIIIIIIIIIIIIIIIIIIIIIIIIIIIIIIIIIIIIIIIIIIIIIIIII
IA2IIIIIIIIIIIIIIIIIIIIIIIIIIIIIIIIIIIIIIIIIIIIIIIIIIIIIIIIIIIII
IIIIIIIIIIIIIIIIIIIIIIIIIIIIIIIIA1IIIIIIIIIIIIIIIIIIIIIIIIIIIIII
IIIIIIIIIIIIIIIIIIIIIIIIIIIIIIIIIIIIIIIIIIIA1IIIIIIIIIIIIIIIIIII
IIIIIIIIIIIIIIIIIIIIIIIIIIIIIIIIIIIIIIIIIIIA1IIA1IIIIIIIIIIIIIII
IIIIIA1IIIIIIIIIIIIIIIIIIIIIIIIIIIIIIIIIIIIA1IIA1IIIIIIIIIIIIIII
IA1IIA1IIIIIIIIIIIIIIIIIIIIIIIIIIIIIIIIIIIIA1IIA1IIIIIIIIIIIIIII
IIIIIIIIIA2IIIIIIIIIIIIIIIIIIIIIIIIIIIIIIIIIIIIIIIIIIIIIIIIIIIII
IIIIIIIIIIIIIIIIIIIIA2IIIIIIIIIIIIIIIIIIIIIIIIIIIIIIIIIIIIIIIIII
IIIIIIIIIIIIIIIIIIIIA2IIIIIIIIIIIIIIIIIA2IIIIIIIIIIIIIIIIIIIIIII
IIIIIIIIIIIIIIIIIIIIA2IIIIIIIA1IIIIIIIIA2IIIIIIIIIIIIIIIIIIIIIII
IIIIIIIIA2IIIIIIIIIIIIIIIIIIIIIIIIIIIIIIIIIIIIIIIIIIIIIIIIIIIIII
IIA2IIIIIIIIIIIIIIIIIIIIIIIIIIIIIIIIIIIIIIIIIIIIIIIIIIIIIIIIIIII
IIAA1IIIIIIIIIIIIIIIIIIIIIIIIIIIIIIIIIIIIIIIIIIIIIIIIIIIIIIIIIII
IIAA1IIA1IIIIIIIIIIIIIIIIIIIIIIIIIIIIIIIIIIIIIIIIIIIIIIIIIIIIIII
IIIIIIIIIIIIIIIIIIIIIIIIIIIIIIIIIIIIIIIIIIIIIIIIIIIIA2IIIIIIIIII
IIIIIIIIIIIIIIIIIIIIIIIIIIIIIIIIIIIIIIIIIIIIIIIIIIIIA2IIIIIA2III
IIIIIIIIIIIIIIIIIIIIIIIIIIIIIA2IIIIIIIIIIIIIIIIIIIIIIIIIIIIIIIII
IIIIIIIIIIIIIIIIIIIIIIIIIIIIIIIIIIIIIIIIIIIIIIIIIIIIIIIIIIIIA1II
IIIIIIIIIIIIIIIIIIIIIIIIIIIIA1IIIIIIIIIIIIIIIIIIIIIIIIIIIIIIA1II
IIIIIIIIIIIIIIIIIIIIIIIIIIIIIIIIIIIIIIIIIIIIIIIIIIIIIA2IIIIIIIII
IIIIIIIIIIIIIIIIIIIIIIIIIIIIIIIIIIIIIIIIIIIIIIIIIIIIIIIIIIIA1III
IA2IIIIIIIIIIIIIIIIIIIIIIIIIIIIIIIIIIIIIIIIIIIIIIIIIIIIIIIIIIIII
IA1IIIIIIIIIIIIIIIIIIIIIIIIIIIIIIIIIIIIIIIIIIIIIIIIIIIIIIIIIIIII
IIIIIIIIIIIIIIIIIIIIIIIIIIIIIIIIA2IIIIIIIIIIIIIIIIIIIIIIIIIIIIII
IIIIIIIIIIIIIIIIIIIIIIIIIIIIIIIIIIIIIIIIIIIA2IIIIIIIIIIIIIIIIIII
IIIIIIIIIIIIIIIIIIIIIIIIIIIIIIIIIIIIIIIIIIIA2IIA2IIIIIIIIIIIIIII
IIIIIA1IIIIIIIIIIIIIIIIIIIIIIIIIIIIIIIIIIIIA2IIA2IIIIIIIIIIIIIII
IA1IIA1IIIIIIIIIIIIIIIIIIIIIIIIIIIIIIIIIIIIA2IIA2IIIIIIIIIIIIIII
IIIIIIIIIA1IIIIIIIIIIIIIIIIIIIIIIIIIIIIIIIIIIIIIIIIIIIIIIIIIIIII
IIIIIIIIIIIIIIIIIIIIA1IIIIIIIIIIIIIIIIIIIIIIIIIIIIIIIIIIIIIIIIII
IIIIIIIIIIIIIIIIIIIIA1IIIIIIIIIIIIIIIIIA1IIIIIIIIIIIIIIIIIIIIIII
IIIIIIIIIIIIIIIIIIIIA1IIIIIIIA1IIIIIIIIA1IIIIIIIIIIIIIIIIIIIIIII
IIIIIIIIA1IIIIIIIIIIIIIIIIIIIIIIIIIIIIIIIIIIIIIIIIIIIIIIIIIIIIII
IIA1IIIIIIIIIIIIIIIIIIIIIIIIIIIIIIIIIIIIIIIIIIIIIIIIIIIIIIIIIIII
IIAA1IIIIIIIIIIIIIIIIIIIIIIIIIIIIIIIIIIIIIIIIIIIIIIIIIIIIIIIIIII
IIAA1IIA1IIIIIIIIIIIIIIIIIIIIIIIIIIIIIIIIIIIIIIIIIIIIIIIIIIIIIII
IIIIIIIIIIIIIIIIIIIIIIIIIIIIIIIIIIIIIIIIIIIIIIIIIIIIA1IIIIIIIIII
IIIIIIIIIIIIIIIIIIIIIIIIIIIIIIIIIIIIIIIIIIIIIIIIIIIIA1IIIIIA1III
IIIIIIIIIIIIIIIIIIIIIIIIIIIIIA2IIIIIIIIIIIIIIIIIIIIIIIIIIIIIIIII
IIIIIIIIIIIIIIIIIIIIIIIIIIIIIIIIIIIIIIIIIIIIIIIIIIIIIIIIIIIIA1II
IIIIIIIIIIIIIIIIIIIIIIIIIIIIA1IIIIIIIIIIIIIIIIIIIIIIIIIIIIIIA1II
IIIIIIIIIIIIIIIIIIIIIIIIIIIIIIIIIIIIIIIIIIIIIIIIIIIIIA1IIIIIIIII
IIIIIIIIIIIIIIIIIIIIIIIIIIIIIIIIIIIIIIIIIIIIIIIIIIIIIIIIIIIA2III
IA1IIIIIIIIIIIIIIIIIIIIIIIIIIIIIIIIIIIIIIIIIIIIIIIIIIIIIIIIIIIII
IA2IIIIIIIIIIIIIIIIIIIIIIIIIIIIIIIIIIIIIIIIIIIIIIIIIIIIIIIIIIIII
IIIIIIIIIIIIIIIIIIIIIIIIIIIIIIIIA1IIIIIIIIIIIIIIIIIIIIIIIIIIIIII
IIIIIIIIIIIIIIIIIIIIIIIIIIIIIIIIIIIIIIIIIIIA2IIIIIIIIIIIIIIIIIII
IIIIIIIIIIIIIIIIIIIIIIIIIIIIIIIIIIIIIIIIIIIA2IIA1IIIIIIIIIIIIIII
IIIIIA1IIIIIIIIIIIIIIIIIIIIIIIIIIIIIIIIIIIIA2IIA1IIIIIIIIIIIIIII
IA1IIA1IIIIIIIIIIIIIIIIIIIIIIIIIIIIIIIIIIIIA2IIA1IIIIIIIIIIIIIII
IIIIIIIIIA2IIIIIIIIIIIIIIIIIIIIIIIIIIIIIIIIIIIIIIIIIIIIIIIIIIIII
IIIIIIIIIIIIIIIIIIIIA1IIIIIIIIIIIIIIIIIIIIIIIIIIIIIIIIIIIIIIIIII
IIIIIIIIIIIIIIIIIIIIA1IIIIIIIIIIIIIIIIIA1IIIIIIIIIIIIIIIIIIIIIII
IIIIIIIIIIIIIIIIIIIIA1IIIIIIIA1IIIIIIIIA1IIIIIIIIIIIIIIIIIIIIIII
IIIIIIIIA1IIIIIIIIIIIIIIIIIIIIIIIIIIIIIIIIIIIIIIIIIIIIIIIIIIIIII
IIA1IIIIIIIIIIIIIIIIIIIIIIIIIIIIIIIIIIIIIIIIIIIIIIIIIIIIIIIIIIII
IIAA1IIIIIIIIIIIIIIIIIIIIIIIIIIIIIIIIIIIIIIIIIIIIIIIIIIIIIIIIIII
IIAA1IIA1IIIIIIIIIIIIIIIIIIIIIIIIIIIIIIIIIIIIIIIIIIIIIIIIIIIIIII
IIIIIIIIIIIIIIIIIIIIIIIIIIIIIIIIIIIIIIIIIIIIIIIIIIIIA1IIIIIIIIII
IIIIIIIIIIIIIIIIIIIIIIIIIIIIIIIIIIIIIIIIIIIIIIIIIIIIA1IIIIIA1III
IIIIIIIIIIIIIIIIIIIIIIIIIIIIIA1IIIIIIIIIIIIIIIIIIIIIIIIIIIIIIIII
IIIIIIIIIIIIIIIIIIIIIIIIIIIIIIIIIIIIIIIIIIIIIIIIIIIIIIIIIIIIA2II
IIIIIIIIIIIIIIIIIIIIIIIIIIIIA2IIIIIIIIIIIIIIIIIIIIIIIIIIIIIIA2II
IIIIIIIIIIIIIIIIIIIIIIIIIIIIIIIIIIIIIIIIIIIIIIIIIIIIIA1IIIIIIIII
IIIIIIIIIIIIIIIIIIIIIIIIIIIIIIIIIIIIIIIIIIIIIIIIIIIIIIIIIIIA2III
IA1IIIIIIIIIIIIIIIIIIIIIIIIIIIIIIIIIIIIIIIIIIIIIIIIIIIIIIIIIIIII
IA2IIIIIIIIIIIIIIIIIIIIIIIIIIIIIIIIIIIIIIIIIIIIIIIIIIIIIIIIIIIII
IIIIIIIIIIIIIIIIIIIIIIIIIIIIIIIIA1IIIIIIIIIIIIIIIIIIIIIIIIIIIIII
IIIIIIIIIIIIIIIIIIIIIIIIIIIIIIIIIIIIIIIIIIIA1IIIIIIIIIIIIIIIIIII
IIIIIIIIIIIIIIIIIIIIIIIIIIIIIIIIIIIIIIIIIIIA1IIA2IIIIIIIIIIIIIII
IIIIIA2IIIIIIIIIIIIIIIIIIIIIIIIIIIIIIIIIIIIA1IIA2IIIIIIIIIIIIIII
IA2IIA2IIIIIIIIIIIIIIIIIIIIIIIIIIIIIIIIIIIIA1IIA2IIIIIIIIIIIIIII
IIIIIIIIIA1IIIIIIIIIIIIIIIIIIIIIIIIIIIIIIIIIIIIIIIIIIIIIIIIIIIII
IIIIIIIIIIIIIIIIIIIIA2IIIIIIIIIIIIIIIIIIIIIIIIIIIIIIIIIIIIIIIIII
IIIIIIIIIIIIIIIIIIIIA2IIIIIIIIIIIIIIIIIA2IIIIIIIIIIIIIIIIIIIIIII
IIIIIIIIIIIIIIIIIIIIA2IIIIIIIA2IIIIIIIIA2IIIIIIIIIIIIIIIIIIIIIII
IIIIIIIIAIIIIIIIIIIIIIIIIIIIIIIIIIIIIIIIIIIIIIIIIIIIIIIIIIIIIIII
IIA1IIIIIIIIIIIIIIIIIIIIIIIIIIIIIIIIIIIIIIIIIIIIIIIIIIIIIIIIIIII
IIAA1IIIIIIIIIIIIIIIIIIIIIIIIIIIIIIIIIIIIIIIIIIIIIIIIIIIIIIIIIII
IIAA1IIA1IIIIIIIIIIIIIIIIIIIIIIIIIIIIIIIIIIIIIIIIIIIIIIIIIIIIIII
IIIIIIIIIIIIIIIIIIIIIIIIIIIIIIIIIIIIIIIIIIIIIIIIIIIIA1IIIIIIIIII
IIIIIIIIIIIIIIIIIIIIIIIIIIIIIIIIIIIIIIIIIIIIIIIIIIIIA1IIIIIA1III
IIIIIIIIIIIIIIIIIIIIIIIIIIIIIA1IIIIIIIIIIIIIIIIIIIIIIIIIIIIIIIII
IIIIIIIIIIIIIIIIIIIIIIIIIIIIIIIIIIIIIIIIIIIIIIIIIIIIIIIIIIIIA1II
IIIIIIIIIIIIIIIIIIIIIIIIIIIIA1IIIIIIIIIIIIIIIIIIIIIIIIIIIIIIA1II
IIIIIIIIIIIIIIIIIIIIIIIIIIIIIIIIIIIIIIIIIIIIIIIIIIIIIA2IIIIIIIII
IIIIIIIIIIIIIIIIIIIIIIIIIIIIIIIIIIIIIIIIIIIIIIIIIIIIIIIIIIIA2III
IA1IIIIIIIIIIIIIIIIIIIIIIIIIIIIIIIIIIIIIIIIIIIIIIIIIIIIIIIIIIIII
IA2IIIIIIIIIIIIIIIIIIIIIIIIIIIIIIIIIIIIIIIIIIIIIIIIIIIIIIIIIIIII
IIIIIIIIIIIIIIIIIIIIIIIIIIIIIIIIA1IIIIIIIIIIIIIIIIIIIIIIIIIIIIII
IIIIIIIIIIIIIIIIIIIIIIIIIIIIIIIIIIIIIIIIIIIA2IIIIIIIIIIIIIIIIIII
IIIIIIIIIIIIIIIIIIIIIIIIIIIIIIIIIIIIIIIIIIIA2IIA1IIIIIIIIIIIIIII
IIIIIA1IIIIIIIIIIIIIIIIIIIIIIIIIIIIIIIIIIIIA2IIA1IIIIIIIIIIIIIII
IA1IIA1IIIIIIIIIIIIIIIIIIIIIIIIIIIIIIIIIIIIA2IIA1IIIIIIIIIIIIIII
IIIIIIIIIA2IIIIIIIIIIIIIIIIIIIIIIIIIIIIIIIIIIIIIIIIIIIIIIIIIIIII
IIIIIIIIIIIIIIIIIIIIA1IIIIIIIIIIIIIIIIIIIIIIIIIIIIIIIIIIIIIIIIII
IIIIIIIIIIIIIIIIIIIIA1IIIIIIIIIIIIIIIIIA1IIIIIIIIIIIIIIIIIIIIIII
IIIIIIIIIIIIIIIIIIIIA1IIIIIIIA1IIIIIIIIA1IIIIIIIIIIIIIIIIIIIIIII
IIIIIIIIA1IIIIIIIIIIIIIIIIIIIIIIIIIIIIIIIIIIIIIIIIIIIIIIIIIIIIII
IIA1IIIIIIIIIIIIIIIIIIIIIIIIIIIIIIIIIIIIIIIIIIIIIIIIIIIIIIIIIIII
IIAA1IIIIIIIIIIIIIIIIIIIIIIIIIIIIIIIIIIIIIIIIIIIIIIIIIIIIIIIIIII
IIAA1IIA1IIIIIIIIIIIIIIIIIIIIIIIIIIIIIIIIIIIIIIIIIIIIIIIIIIIIIII
IIIIIIIIIIIIIIIIIIIIIIIIIIIIIIIIIIIIIIIIIIIIIIIIIIIIA2IIIIIIIIII
IIIIIIIIIIIIIIIIIIIIIIIIIIIIIIIIIIIIIIIIIIIIIIIIIIIIA2IIIIIA1III
IIIIIIIIIIIIIIIIIIIIIIIIIIIIIA2IIIIIIIIIIIIIIIIIIIIIIIIIIIIIIIII
IIIIIIIIIIIIIIIIIIIIIIIIIIIIIIIIIIIIIIIIIIIIIIIIIIIIIIIIIIIIA1II
IIIIIIIIIIIIIIIIIIIIIIIIIIIIA1IIIIIIIIIIIIIIIIIIIIIIIIIIIIIIA1II
IIIIIIIIIIIIIIIIIIIIIIIIIIIIIIIIIIIIIIIIIIIIIIIIIIIIIA2IIIIIIIII
IIIIIIIIIIIIIIIIIIIIIIIIIIIIIIIIIIIIIIIIIIIIIIIIIIIIIIIIIIIA1III
IA2IIIIIIIIIIIIIIIIIIIIIIIIIIIIIIIIIIIIIIIIIIIIIIIIIIIIIIIIIIIII
IIIIIIIIIIIIIIIIIIIIIIIIIIIIIIIIA1IIIIIIIIIIIIIIIIIIIIIIIIIIIIII
IIIIIIIIIIIIIIIIIIIIIIIIIIIIIIIIIIIIIIIIIIIA1IIIIIIIIIIIIIIIIIII
IIIIIIIIIIIIIIIIIIIIIIIIIIIIIIIIIIIIIIIIIIIA1IIA1IIIIIIIIIIIIIII
IIIIIA1IIIIIIIIIIIIIIIIIIIIIIIIIIIIIIIIIIIIA1IIA1IIIIIIIIIIIIIII
IA1IIA1IIIIIIIIIIIIIIIIIIIIIIIIIIIIIIIIIIIIA1IIA1IIIIIIIIIIIIIII
IIIIIIIIIA2IIIIIIIIIIIIIIIIIIIIIIIIIIIIIIIIIIIIIIIIIIIIIIIIIIIII
IIIIIIIIIIIIIIIIIIIIA1IIIIIIIIIIIIIIIIIIIIIIIIIIIIIIIIIIIIIIIIII
IIIIIIIIIIIIIIIIIIIIA1IIIIIIIIIIIIIIIIIA1IIIIIIIIIIIIIIIIIIIIIII
IIIIIIIIIIIIIIIIIIIIA1IIIIIIIA1IIIIIIIIA1IIIIIIIIIIIIIIIIIIIIIII
IIIIIIIIA2IIIIIIIIIIIIIIIIIIIIIIIIIIIIIIIIIIIIIIIIIIIIIIIIIIIIII
IIA2IIIIIIIIIIIIIIIIIIIIIIIIIIIIIIIIIIIIIIIIIIIIIIIIIIIIIIIIIIII
IIAA2IIIIIIIIIIIIIIIIIIIIIIIIIIIIIIIIIIIIIIIIIIIIIIIIIIIIIIIIIII
IIAA2IIA2IIIIIIIIIIIIIIIIIIIIIIIIIIIIIIIIIIIIIIIIIIIIIIIIIIIIIII
IIIIIIIIIIIIIIIIIIIIIIIIIIIIIIIIIIIIIIIIIIIIIIIIIIIIA2IIIIIIIIII
IIIIIIIIIIIIIIIIIIIIIIIIIIIIIIIIIIIIIIIIIIIIIIIIIIIIA2IIIIIA2III
IIIIIIIIIIIIIIIIIIIIIIIIIIIIIA2IIIIIIIIIIIIIIIIIIIIIIIIIIIIIIIII
IIIIIIIIIIIIIIIIIIIIIIIIIIIIIIIIIIIIIIIIIIIIIIIIIIIIIIIIIIIIA1II
IIIIIIIIIIIIIIIIIIIIIIIIIIIIAIIIIIIIIIIIIIIIIIIIIIIIIIIIIIIIA1II
IIIIIIIIIIIIIIIIIIIIIIIIIIIIIIIIIIIIIIIIIIIIIIIIIIIIIAIIIIIIIIII
IIIIIIIIIIIIIIIIIIIIIIIIIIIIIIIIIIIIIIIIIIIIIIIIIIIIIIIIIIIA1III
IA2IIIIIIIIIIIIIIIIIIIIIIIIIIIIIIIIIIIIIIIIIIIIIIIIIIIIIIIIIIIII
IIIIIIIIIIIIIIIIIIIIIIIIIIIIIIIIA2IIIIIIIIIIIIIIIIIIIIIIIIIIIIII
IIIIIIIIIIIIIIIIIIIIIIIIIIIIIIIIIIIIIIIIIIIA2IIIIIIIIIIIIIIIIIII
IIIIIIIIIIIIIIIIIIIIIIIIIIIIIIIIIIIIIIIIIIIA2IIA2IIIIIIIIIIIIIII
IIIIIA2IIIIIIIIIIIIIIIIIIIIIIIIIIIIIIIIIIIIA2IIA2IIIIIIIIIIIIIII
IA2IIA2IIIIIIIIIIIIIIIIIIIIIIIIIIIIIIIIIIIIA2IIA2IIIIIIIIIIIIIII
IA111I1I111I1III11IIIIIIIIIIIIIIIIIIIIIIIIIIIIIIIIIIIIIIIIIIIIII
IIIIIIIIIIIIIIIIIIIIIIIIIIIIIIIIIIIIIIIA1IIIIIIIIIIIIIIIIIIIIIII
IIIIIIIIIIIIIIIIIIIIIIIIIIIIIIIIIIIIIIIIIA1IIIIIIIIIIIIIIIIIIIII
IIIA1IIIIIIIIIIIIIIIIIIIIIIIIIIIIIIIIIIIIIIIIIIIIIIIIIIIIIIIIIII
IIIIIIIIIIIIIIIIIIIIIIIIIIIIIIIIIIIIIIIIIIIIIIIA1IIIIIIIIIIIIIII
IIIIIIIA2IIIIIIIIIIIIIIIIIIIIIIIIIIIIIIIIIIIIIIIIIIIIIIIIIIIIIII
IIIIIIIIIIIIIIIIIIIIIIIA1IIIIIIIIIIIIIIIIIIIIIIIIIIIIIIIIIIIIIII
IIIA1IIIIIIIIIIIIIIIIIIIIIIIIIIIIIIIIIIIIIIIIIIIIIIIIIIIIIIIIIII
IIIIIIIIIIIIIIIIIIIIIIIIIIIIIIIIIIIIIIIIIIIIIIIIIIIIIIIIIIIA2III
IIIIIIIIIIIIIIIIIIIIA1IIIIIIIIIIIIIIIIIIIIIIIIIIIIIIIIIIIIIIIIII
IIIIIIIIIIIIIIIIIIIIIIIIIIIIIIIIIIIIIIIIIIIA2IIIIIIIIIIIIIIIIIII
IIIIIA2IIIIIIIIIIIIIIIIIIIIIIIIIIIIIIIIIIIIIIIIIIIIIIIIIIIIIIIII
IIIIIIIIIIIIIIIIIIIIIIIIIIIIIIIIIIIIIIIIIIIIIIIIIIIIIIIIIIIA1III
IIIIIIIA1IIIIIIIIIIIIIIIIIIIIIIIIIIIIIIIIIIIIIIIIIIIIIIIIIIIIIII
IIIIIIIIIIIIIIIIIIIIIIIIIIIIIIIIIIIA2IIIIIIIIIIIIIIIIIIIIIIIIIII
IIIIIIIIIIIIIIIIIIIIIIIIIIIIIIIIIIIIIIIIIIA1IIIIIIIIIIIIIIIIIIII
IAI1IIIII1I1II1II1IIIIIIIIIIIIIIIIIIIIIIIIIIIIIIIIIIIIIIIIIIIIII
IIIIIIIIIIIIIIIIIIIIIIIIIIIIIIIIIIIIIIIA2IIIIIIIIIIIIIIIIIIIIIII
IIIIIIIIIIIIIIIIIIIIIIIIIIIIIA2IIIIIIIIIIIIIIIIIIIIIIIIIIIIIIIII
IIIIIIIIA2IIIIIIIIIIIIIIIIIIIIIIIIIIIIIIIIIIIIIIIIIIIIIIIIIIIIII
IIA2IIIIIIIIIIIIIIIIIIIIIIIIIIIIIIIIIIIIIIIIIIIIIIIIIIIIIIIIIIII
IIAA2IIIIIIIIIIIIIIIIIIIIIIIIIIIIIIIIIIIIIIIIIIIIIIIIIIIIIIIIIII
IIAA2IIA1IIIIIIIIIIIIIIIIIIIIIIIIIIIIIIIIIIIIIIIIIIIIIIIIIIIIIII
IIIIIIIIIIIIIIIIIIIIIIIIIIIIIIIIIIIIIIIIIIIIIIIIIIIIA2IIIIIIIIII
IIIIIIIIIIIIIIIIIIIIIIIIIIIIIIIIIIIIIIIIIIIIIIIIIIIIA2IIIIIA2III
IIIIIIIIIIIIIIIIIIIIIIIIIIIIIA1IIIIIIIIIIIIIIIIIIIIIIIIIIIIIIIII
IIIIIIIIIIIIIIIIIIIIIIIIIIIIIIIIIIIIIIIIIIIIIIIIIIIIIIIIIIIIA1II
IIIIIIIIIIIIIIIIIIIIIIIIIIIIA1IIIIIIIIIIIIIIIIIIIIIIIIIIIIIIA1II
IIIIIIIIIIIIIIIIIIIIIIIIIIIIIIIIIIIIIIIIIIIIIIIIIIIIIA2IIIIIIIII
IIIIIIIIIIIIIIIIIIIIIIIIIIIIIIIIIIIIIIIIIIIIIIIIIIIIIIIIIIIA1III
IA1IIIIIIIIIIIIIIIIIIIIIIIIIIIIIIIIIIIIIIIIIIIIIIIIIIIIIIIIIIIII
IIIIIIIIIIIIIIIIIIIIIIIIIIIIIIIIA2IIIIIIIIIIIIIIIIIIIIIIIIIIIIII
IIIIIIIIIIIIIIIIIIIIIIIIIIIIIIIIIIIIIIIIIIIA1IIIIIIIIIIIIIIIIIII
IIIIIIIIIIIIIIIIIIIIIIIIIIIIIIIIIIIIIIIIIIIA1IIA1IIIIIIIIIIIIIII
IIIIIA1IIIIIIIIIIIIIIIIIIIIIIIIIIIIIIIIIIIIA1IIA1IIIIIIIIIIIIIII
IA1IIA1IIIIIIIIIIIIIIIIIIIIIIIIIIIIIIIIIIIIA1IIA1IIIIIIIIIIIIIII
IIIIIIIIIA1IIIIIIIIIIIIIIIIIIIIIIIIIIIIIIIIIIIIIIIIIIIIIIIIIIIII
IIIIIIIIIIIIIIIIIIIIA2IIIIIIIIIIIIIIIIIIIIIIIIIIIIIIIIIIIIIIIIII
IIIIIIIIIIIIIIIIIIIIA2IIIIIIIIIIIIIIIIIA2IIIIIIIIIIIIIIIIIIIIIII
IIIIIIIIIIIIIIIIIIIIA2IIIIIIIA2IIIIIIIIA2IIIIIIIIIIIIIIIIIIIIIII
IIIIIIIIA2IIIIIIIIIIIIIIIIIIIIIIIIIIIIIIIIIIIIIIIIIIIIIIIIIIIIII
IIA2IIIIIIIIIIIIIIIIIIIIIIIIIIIIIIIIIIIIIIIIIIIIIIIIIIIIIIIIIIII
IIAA2IIIIIIIIIIIIIIIIIIIIIIIIIIIIIIIIIIIIIIIIIIIIIIIIIIIIIIIIIII
IIAA2IIA2IIIIIIIIIIIIIIIIIIIIIIIIIIIIIIIIIIIIIIIIIIIIIIIIIIIIIII
IIIIIIIIIIIIIIIIIIIIIIIIIIIIIIIIIIIIIIIIIIIIIIIIIIIIA2IIIIIIIIII
IIIIIIIIIIIIIIIIIIIIIIIIIIIIIIIIIIIIIIIIIIIIIIIIIIIIA2IIIIIA2III
IIIIIIIIIIIIIIIIIIIIIIIIIIIIIA2IIIIIIIIIIIIIIIIIIIIIIIIIIIIIIIII
IIIIIIIIIIIIIIIIIIIIIIIIIIIIIIIIIIIIIIIIIIIIIIIIIIIIIIIIIIIIA1II
IIIIIIIIIIIIIIIIIIIIIIIIIIIIA1IIIIIIIIIIIIIIIIIIIIIIIIIIIIIIA1II
IIIIIIIIIIIIIIIIIIIIIIIIIIIIIIIIIIIIIIIIIIIIIIIIIIIIIA2IIIIIIIII
IIIIIIIIIIIIIIIIIIIIIIIIIIIIIIIIIIIIIIIIIIIIIIIIIIIIIIIIIIIA1III
IA1IIIIIIIIIIIIIIIIIIIIIIIIIIIIIIIIIIIIIIIIIIIIIIIIIIIIIIIIIIIII
IIIIIIIIIIIIIIIIIIIIIIIIIIIIIIIIA2IIIIIIIIIIIIIIIIIIIIIIIIIIIIII
IIIIIIIIIIIIIIIIIIIIIIIIIIIIIIIIIIIIIIIIIIIA2IIIIIIIIIIIIIIIIIII
IIIIIIIIIIIIIIIIIIIIIIIIIIIIIIIIIIIIIIIIIIIA2IIA1IIIIIIIIIIIIIII
IIIIIA1IIIIIIIIIIIIIIIIIIIIIIIIIIIIIIIIIIIIA2IIA1IIIIIIIIIIIIIII
IA1IIA1IIIIIIIIIIIIIIIIIIIIIIIIIIIIIIIIIIIIA2IIA1IIIIIIIIIIIIIII
IIIIIIIIIA1IIIIIIIIIIIIIIIIIIIIIIIIIIIIIIIIIIIIIIIIIIIIIIIIIIIII
IIIIIIIIIIIIIIIIIIIIA1IIIIIIIIIIIIIIIIIIIIIIIIIIIIIIIIIIIIIIIIII
IIIIIIIIIIIIIIIIIIIIA1IIIIIIIIIIIIIIIIIA1IIIIIIIIIIIIIIIIIIIIIII
IIIIIIIIIIIIIIIIIIIIA1IIIIIIIA2IIIIIIIIA1IIIIIIIIIIIIIIIIIIIIIII
IIIIIIIIA1IIIIIIIIIIIIIIIIIIIIIIIIIIIIIIIIIIIIIIIIIIIIIIIIIIIIII
IIA2IIIIIIIIIIIIIIIIIIIIIIIIIIIIIIIIIIIIIIIIIIIIIIIIIIIIIIIIIIII
IIAA2IIIIIIIIIIIIIIIIIIIIIIIIIIIIIIIIIIIIIIIIIIIIIIIIIIIIIIIIIII
IIAA2IIA2IIIIIIIIIIIIIIIIIIIIIIIIIIIIIIIIIIIIIIIIIIIIIIIIIIIIIII
IIIIIIIIIIIIIIIIIIIIIIIIIIIIIIIIIIIIIIIIIIIIIIIIIIIIA1IIIIIIIIII
IIIIIIIIIIIIIIIIIIIIIIIIIIIIIIIIIIIIIIIIIIIIIIIIIIIIA1IIIIIA2III
IIIIIIIIIIIIIIIIIIIIIIIIIIIIIA1IIIIIIIIIIIIIIIIIIIIIIIIIIIIIIIII
IIIIIIIIIIIIIIIIIIIIIIIIIIIIIIIIIIIIIIIIIIIIIIIIIIIIIIIIIIIIA1II
IIIIIIIIIIIIIIIIIIIIIIIIIIIIA1IIIIIIIIIIIIIIIIIIIIIIIIIIIIIIA1II
IIIIIIIIIIIIIIIIIIIIIIIIIIIIIIIIIIIIIIIIIIIIIIIIIIIIIA1IIIIIIIII
IIIIIIIIIIIIIIIIIIIIIIIIIIIIIIIIIIIIIIIIIIIIIIIIIIIIIIIIIIIA1III
IA2IIIIIIIIIIIIIIIIIIIIIIIIIIIIIIIIIIIIIIIIIIIIIIIIIIIIIIIIIIIII
IA1IIIIIIIIIIIIIIIIIIIIIIIIIIIIIIIIIIIIIIIIIIIIIIIIIIIIIIIIIIIII
IIIIIIIIIIIIIIIIIIIIIIIIIIIIIIIIA2IIIIIIIIIIIIIIIIIIIIIIIIIIIIII
IIIIIIIIIIIIIIIIIIIIIIIIIIIIIIIIIIIIIIIIIIIA2IIIIIIIIIIIIIIIIIII
IIIIIIIIIIIIIIIIIIIIIIIIIIIIIIIIIIIIIIIIIIIA2IIA2IIIIIIIIIIIIIII
IIIIIA1IIIIIIIIIIIIIIIIIIIIIIIIIIIIIIIIIIIIA2IIA2IIIIIIIIIIIIIII
IA1IIA1IIIIIIIIIIIIIIIIIIIIIIIIIIIIIIIIIIIIA2IIA2IIIIIIIIIIIIIII
IIIIIIIIIA1IIIIIIIIIIIIIIIIIIIIIIIIIIIIIIIIIIIIIIIIIIIIIIIIIIIII
IIIIIIIIIIIIIIIIIIIIA2IIIIIIIIIIIIIIIIIIIIIIIIIIIIIIIIIIIIIIIIII
IIIIIIIIIIIIIIIIIIIIA2IIIIIIIIIIIIIIIIIA2IIIIIIIIIIIIIIIIIIIIIII
IIIIIIIIIIIIIIIIIIIIA2IIIIIIIA2IIIIIIIIA2IIIIIIIIIIIIIIIIIIIIIII
IIIIIIIIA1IIIIIIIIIIIIIIIIIIIIIIIIIIIIIIIIIIIIIIIIIIIIIIIIIIIIII
IIA2IIIIIIIIIIIIIIIIIIIIIIIIIIIIIIIIIIIIIIIIIIIIIIIIIIIIIIIIIIII
IIAA2IIIIIIIIIIIIIIIIIIIIIIIIIIIIIIIIIIIIIIIIIIIIIIIIIIIIIIIIIII
IIAA2IIA2IIIIIIIIIIIIIIIIIIIIIIIIIIIIIIIIIIIIIIIIIIIIIIIIIIIIIII
IIIIIIIIIIIIIIIIIIIIIIIIIIIIIIIIIIIIIIIIIIIIIIIIIIIIA2IIIIIIIIII
IIIIIIIIIIIIIIIIIIIIIIIIIIIIIIIIIIIIIIIIIIIIIIIIIIIIA2IIIIIA2III
IIIIIIIIIIIIIIIIIIIIIIIIIIIIIA1IIIIIIIIIIIIIIIIIIIIIIIIIIIIIIIII
IIIIIIIIIIIIIIIIIIIIIIIIIIIIIIIIIIIIIIIIIIIIIIIIIIIIIIIIIIIIA2II
IIIIIIIIIIIIIIIIIIIIIIIIIIIIA2IIIIIIIIIIIIIIIIIIIIIIIIIIIIIIA2II
IIIIIIIIIIIIIIIIIIIIIIIIIIIIIIIIIIIIIIIIIIIIIIIIIIIIIA1IIIIIIIII
IIIIIIIIIIIIIIIIIIIIIIIIIIIIIIIIIIIIIIIIIIIIIIIIIIIIIIIIIIIA2III
IA1IIIIIIIIIIIIIIIIIIIIIIIIIIIIIIIIIIIIIIIIIIIIIIIIIIIIIIIIIIIII
IA2IIIIIIIIIIIIIIIIIIIIIIIIIIIIIIIIIIIIIIIIIIIIIIIIIIIIIIIIIIIII
IIIIIIIIIIIIIIIIIIIIIIIIIIIIIIIIA1IIIIIIIIIIIIIIIIIIIIIIIIIIIIII
IIIIIIIIIIIIIIIIIIIIIIIIIIIIIIIIIIIIIIIIIIIA1IIIIIIIIIIIIIIIIIII
IIIIIIIIIIIIIIIIIIIIIIIIIIIIIIIIIIIIIIIIIIIA1IIA1IIIIIIIIIIIIIII
IIIIIA1IIIIIIIIIIIIIIIIIIIIIIIIIIIIIIIIIIIIA1IIA1IIIIIIIIIIIIIII
IA1IIA1IIIIIIIIIIIIIIIIIIIIIIIIIIIIIIIIIIIIA1IIA1IIIIIIIIIIIIIII
IIIIIIIIIA1IIIIIIIIIIIIIIIIIIIIIIIIIIIIIIIIIIIIIIIIIIIIIIIIIIIII
IIIIIIIIIIIIIIIIIIIIA1IIIIIIIIIIIIIIIIIIIIIIIIIIIIIIIIIIIIIIIIII
IIIIIIIIIIIIIIIIIIIIA1IIIIIIIIIIIIIIIIIA1IIIIIIIIIIIIIIIIIIIIIII
IIIIIIIIIIIIIIIIIIIIA1IIIIIIIA1IIIIIIIIA1IIIIIIIIIIIIIIIIIIIIIII
IIIIIIIIA1IIIIIIIIIIIIIIIIIIIIIIIIIIIIIIIIIIIIIIIIIIIIIIIIIIIIII
IIA1IIIIIIIIIIIIIIIIIIIIIIIIIIIIIIIIIIIIIIIIIIIIIIIIIIIIIIIIIIII
IIAA2IIIIIIIIIIIIIIIIIIIIIIIIIIIIIIIIIIIIIIIIIIIIIIIIIIIIIIIIIII
IIAA2IIA2IIIIIIIIIIIIIIIIIIIIIIIIIIIIIIIIIIIIIIIIIIIIIIIIIIIIIII
IIIIIIIIIIIIIIIIIIIIIIIIIIIIIIIIIIIIIIIIIIIIIIIIIIIIA1IIIIIIIIII
IIIIIIIIIIIIIIIIIIIIIIIIIIIIIIIIIIIIIIIIIIIIIIIIIIIIA1IIIIIA1III
IIIIIIIIIIIIIIIIIIIIIIIIIIIIIA1IIIIIIIIIIIIIIIIIIIIIIIIIIIIIIIII
IIIIIIIIIIIIIIIIIIIIIIIIIIIIIIIIIIIIIIIIIIIIIIIIIIIIIIIIIIIIA2II
IIIIIIIIIIIIIIIIIIIIIIIIIIIIA1IIIIIIIIIIIIIIIIIIIIIIIIIIIIIIA2II
IIIIIIIIIIIIIIIIIIIIIIIIIIIIIIIIIIIIIIIIIIIIIIIIIIIIIA1IIIIIIIII
IIIIIIIIIIIIIIIIIIIIIIIIIIIIIIIIIIIIIIIIIIIIIIIIIIIIIIIIIIIA2III
IA2IIIIIIIIIIIIIIIIIIIIIIIIIIIIIIIIIIIIIIIIIIIIIIIIIIIIIIIIIIIII
IIIIIIIIIIIIIIIIIIIIIIIIIIIIIIIIA1IIIIIIIIIIIIIIIIIIIIIIIIIIIIII
IIIIIIIIIIIIIIIIIIIIIIIIIIIIIIIIIIIIIIIIIIIA1IIIIIIIIIIIIIIIIIII
IIIIIIIIIIIIIIIIIIIIIIIIIIIIIIIIIIIIIIIIIIIA1IIA2IIIIIIIIIIIIIII
IIIIIA2IIIIIIIIIIIIIIIIIIIIIIIIIIIIIIIIIIIIA1IIA2IIIIIIIIIIIIIII
IA2IIA2IIIIIIIIIIIIIIIIIIIIIIIIIIIIIIIIIIIIA1IIA2IIIIIIIIIIIIIII
IIIIIIIIIA2IIIIIIIIIIIIIIIIIIIIIIIIIIIIIIIIIIIIIIIIIIIIIIIIIIIII
IIIIIIIIIIIIIIIIIIIIA1IIIIIIIIIIIIIIIIIIIIIIIIIIIIIIIIIIIIIIIIII
IIIIIIIIIIIIIIIIIIIIA1IIIIIIIIIIIIIIIIIA1IIIIIIIIIIIIIIIIIIIIIII
IIIIIIIIIIIIIIIIIIIIA1IIIIIIIA1IIIIIIIIA1IIIIIIIIIIIIIIIIIIIIIII
IIIIIIIIA2IIIIIIIIIIIIIIIIIIIIIIIIIIIIIIIIIIIIIIIIIIIIIIIIIIIIII
IIA1IIIIIIIIIIIIIIIIIIIIIIIIIIIIIIIIIIIIIIIIIIIIIIIIIIIIIIIIIIII
IIAA1IIIIIIIIIIIIIIIIIIIIIIIIIIIIIIIIIIIIIIIIIIIIIIIIIIIIIIIIIII
IIAA1IIA1IIIIIIIIIIIIIIIIIIIIIIIIIIIIIIIIIIIIIIIIIIIIIIIIIIIIIII
IIIIIIIIIIIIIIIIIIIIIIIIIIIIIIIIIIIIIIIIIIIIIIIIIIIIA1IIIIIIIIII
IIIIIIIIIIIIIIIIIIIIIIIIIIIIIIIIIIIIIIIIIIIIIIIIIIIIA1IIIIIA1III
IIIIIIIIIIIIIIIIIIIIIIIIIIIIIA2IIIIIIIIIIIIIIIIIIIIIIIIIIIIIIIII
IIIIIIIIIIIIIIIIIIIIIIIIIIIIIIIIIIIIIIIIIIIIIIIIIIIIIIIIIIIIA1II
IIIIIIIIIIIIIIIIIIIIIIIIIIIIA1IIIIIIIIIIIIIIIIIIIIIIIIIIIIIIA1II
IIIIIIIIIIIIIIIIIIIIIIIIIIIIIIIIIIIIIIIIIIIIIIIIIIIIIA2IIIIIIIII
IIIIIIIIIIIIIIIIIIIIIIIIIIIIIIIIIIIIIIIIIIIIIIIIIIIIIIIIIIIA1III
IA2IIIIIIIIIIIIIIIIIIIIIIIIIIIIIIIIIIIIIIIIIIIIIIIIIIIIIIIIIIIII
IA1IIIIIIIIIIIIIIIIIIIIIIIIIIIIIIIIIIIIIIIIIIIIIIIIIIIIIIIIIIIII
IIIIIIIIIIIIIIIIIIIIIIIIIIIIIIIIA2IIIIIIIIIIIIIIIIIIIIIIIIIIIIII
IIIIIIIIIIIIIIIIIIIIIIIIIIIIIIIIIIIIIIIIIIIA2IIIIIIIIIIIIIIIIIII
IIIIIIIIIIIIIIIIIIIIIIIIIIIIIIIIIIIIIIIIIIIA2IIA1IIIIIIIIIIIIIII
IIIIIA1IIIIIIIIIIIIIIIIIIIIIIIIIIIIIIIIIIIIA2IIA1IIIIIIIIIIIIIII
IA1IIA1IIIIIIIIIIIIIIIIIIIIIIIIIIIIIIIIIIIIA2IIA1IIIIIIIIIIIIIII
IIIIIIIIIA1IIIIIIIIIIIIIIIIIIIIIIIIIIIIIIIIIIIIIIIIIIIIIIIIIIIII
IIIIIIIIIIIIIIIIIIIIA1IIIIIIIIIIIIIIIIIIIIIIIIIIIIIIIIIIIIIIIIII
IIIIIIIIIIIIIIIIIIIIA1IIIIIIIIIIIIIIIIIA1IIIIIIIIIIIIIIIIIIIIIII
IIIIIIIIIIIIIIIIIIIIA1IIIIIIIA1IIIIIIIIA1IIIIIIIIIIIIIIIIIIIIIII
IIIIIIIIA1IIIIIIIIIIIIIIIIIIIIIIIIIIIIIIIIIIIIIIIIIIIIIIIIIIIIII
IIA1IIIIIIIIIIIIIIIIIIIIIIIIIIIIIIIIIIIIIIIIIIIIIIIIIIIIIIIIIIII
IIAA1IIIIIIIIIIIIIIIIIIIIIIIIIIIIIIIIIIIIIIIIIIIIIIIIIIIIIIIIIII
IIAA1IIA1IIIIIIIIIIIIIIIIIIIIIIIIIIIIIIIIIIIIIIIIIIIIIIIIIIIIIII
IIIIIIIIIIIIIIIIIIIIIIIIIIIIIIIIIIIIIIIIIIIIIIIIIIIIA1IIIIIIIIII
IIIIIIIIIIIIIIIIIIIIIIIIIIIIIIIIIIIIIIIIIIIIIIIIIIIIA1IIIIIA1III
IIIIIIIIIIIIIIIIIIIIIIIIIIIIIA2IIIIIIIIIIIIIIIIIIIIIIIIIIIIIIIII
IIIIIIIIIIIIIIIIIIIIIIIIIIIIIIIIIIIIIIIIIIIIIIIIIIIIIIIIIIIIA1II
IIIIIIIIIIIIIIIIIIIIIIIIIIIIA1IIIIIIIIIIIIIIIIIIIIIIIIIIIIIIA1II
IIIIIIIIIIIIIIIIIIIIIIIIIIIIIIIIIIIIIIIIIIIIIIIIIIIIIA2IIIIIIIII
IIIIIIIIIIIIIIIIIIIIIIIIIIIIIIIIIIIIIIIIIIIIIIIIIIIIIIIIIIIA2III
IA2IIIIIIIIIIIIIIIIIIIIIIIIIIIIIIIIIIIIIIIIIIIIIIIIIIIIIIIIIIIII
IIIIIIIIIIIIIIIIIIIIIIIIIIIIIIIIA1IIIIIIIIIIIIIIIIIIIIIIIIIIIIII
IIIIIIIIIIIIIIIIIIIIIIIIIIIIIIIIIIIIIIIIIIIA1IIIIIIIIIIIIIIIIIII
IIIIIIIIIIIIIIIIIIIIIIIIIIIIIIIIIIIIIIIIIIIA1IIA1IIIIIIIIIIIIIII
IIIIIA1IIIIIIIIIIIIIIIIIIIIIIIIIIIIIIIIIIIIA1IIA1IIIIIIIIIIIIIII
IA1IIA1IIIIIIIIIIIIIIIIIIIIIIIIIIIIIIIIIIIIA1IIA1IIIIIIIIIIIIIII
[MLOP] Prefetch Degree Mean: 1.48986
[MLOP] Prefetch Degree SD: 1.71062
[MLOP] Max Score Left Mean (%): 11.3878
[MLOP] Max Score Left SD (%): 14.131
[MLOP] Max Score Right Mean (%): 43.2862
[MLOP] Max Score Right SD (%): 12.8505
LLC TOTAL     ACCESS:    2310043  HIT:     644273  MISS:    1665770  HIT %:    27.8901  MISS %:    72.1099   MPKI: 8.21999
LLC LOAD      ACCESS:     886098  HIT:     253583  MISS:     632515  HIT %:    28.6179  MISS %:    71.3821   MPKI: 3.12124
LLC RFO       ACCESS:      30552  HIT:       1127  MISS:      29425  HIT %:    3.68879  MISS %:    96.3112   MPKI: 0.145202
LLC PREFETCH  ACCESS:    1142087  HIT:     206452  MISS:     935635  HIT %:    18.0767  MISS %:    81.9233   MPKI: 4.61703
LLC WRITEBACK ACCESS:      64164  HIT:      58313  MISS:       5851  HIT %:    90.8812  MISS %:    9.11882   MPKI: 0.0288726

RAW hits: 509568
Loads Generated: 23308275
Loads sent to L1D: 22798707
Stores Generated: 3438009
Stores sent to L1D: 3438007

CPU 1 cumulative IPC: 0.698346 instructions: 200000003 cycles: 286391096
ITLB TOTAL     ACCESS:   28850433  HIT:   27497299  MISS:    1353134  HIT %:    95.3098  MISS %:    4.69017   MPKI: 6.76567
ITLB LOAD      ACCESS:          0  HIT:          0  MISS:          0  HIT %:       -nan  MISS %:       -nan   MPKI: 0
ITLB RFO       ACCESS:          0  HIT:          0  MISS:          0  HIT %:       -nan  MISS %:       -nan   MPKI: 0
ITLB PREFETCH  ACCESS:          0  HIT:          0  MISS:          0  HIT %:       -nan  MISS %:       -nan   MPKI: 0
ITLB WRITEBACK ACCESS:          0  HIT:          0  MISS:          0  HIT %:       -nan  MISS %:       -nan   MPKI: 0
DTLB TOTAL     ACCESS:   15164278  HIT:    6271337  MISS:    8892941  HIT %:     41.356  MISS %:     58.644   MPKI: 44.4647
DTLB LOAD      ACCESS:          0  HIT:          0  MISS:          0  HIT %:       -nan  MISS %:       -nan   MPKI: 0
DTLB RFO       ACCESS:          0  HIT:          0  MISS:          0  HIT %:       -nan  MISS %:       -nan   MPKI: 0
DTLB PREFETCH  ACCESS:          0  HIT:          0  MISS:          0  HIT %:       -nan  MISS %:       -nan   MPKI: 0
DTLB WRITEBACK ACCESS:          0  HIT:          0  MISS:          0  HIT %:       -nan  MISS %:       -nan   MPKI: 0
STLB TOTAL     ACCESS:   11150332  HIT:    4857209  MISS:    6293123  HIT %:    43.5611  MISS %:    56.4389   MPKI: 31.4656
STLB LOAD      ACCESS:          0  HIT:          0  MISS:          0  HIT %:       -nan  MISS %:       -nan   MPKI: 0
STLB RFO       ACCESS:          0  HIT:          0  MISS:          0  HIT %:       -nan  MISS %:       -nan   MPKI: 0
STLB PREFETCH  ACCESS:          0  HIT:          0  MISS:          0  HIT %:       -nan  MISS %:       -nan   MPKI: 0
STLB WRITEBACK ACCESS:          0  HIT:          0  MISS:          0  HIT %:       -nan  MISS %:       -nan   MPKI: 0
L1D TOTAL     ACCESS:   17233451  HIT:   14946032  MISS:    2287419  HIT %:    86.7269  MISS %:    13.2731   MPKI: 11.4371
L1D LOAD      ACCESS:   13871130  HIT:   12502746  MISS:    1368384  HIT %:     90.135  MISS %:    9.86498   MPKI: 6.84192
L1D RFO       ACCESS:    2568054  HIT:    2433713  MISS:     134341  HIT %:    94.7688  MISS %:    5.23124   MPKI: 0.671705
L1D PREFETCH  ACCESS:     794267  HIT:       9573  MISS:     784694  HIT %:    1.20526  MISS %:    98.7947   MPKI: 3.92347
L1D WRITEBACK ACCESS:          0  HIT:          0  MISS:          0  HIT %:       -nan  MISS %:       -nan   MPKI: 0
L1I TOTAL     ACCESS:   38116158  HIT:   38110848  MISS:       5310  HIT %:    99.9861  MISS %:  0.0139311   MPKI: 0.02655
L1I LOAD      ACCESS:   38116158  HIT:   38110848  MISS:       5310  HIT %:    99.9861  MISS %:  0.0139311   MPKI: 0.02655
L1I RFO       ACCESS:          0  HIT:          0  MISS:          0  HIT %:       -nan  MISS %:       -nan   MPKI: 0
L1I PREFETCH  ACCESS:          0  HIT:          0  MISS:          0  HIT %:       -nan  MISS %:       -nan   MPKI: 0
L1I WRITEBACK ACCESS:          0  HIT:          0  MISS:          0  HIT %:       -nan  MISS %:       -nan   MPKI: 0
L2C TOTAL     ACCESS:    9682774  HIT:    7416555  MISS:    2266219  HIT %:    76.5954  MISS %:    23.4046   MPKI: 11.3311
L2C LOAD      ACCESS:    1333995  HIT:     415696  MISS:     918299  HIT %:    31.1617  MISS %:    68.8383   MPKI: 4.59149
L2C RFO       ACCESS:     134329  HIT:     101977  MISS:      32352  HIT %:    75.9158  MISS %:    24.0842   MPKI: 0.16176
L2C PREFETCH  ACCESS:    1204046  HIT:      76800  MISS:    1127246  HIT %:    6.37849  MISS %:    93.6215   MPKI: 5.63623
L2C WRITEBACK ACCESS:     197154  HIT:     194699  MISS:       2455  HIT %:    98.7548  MISS %:    1.24522   MPKI: 0.012275
PSCL5 TOTAL     ACCESS:    6293123  HIT:    6293123  MISS:          0  HIT %:        100  MISS %:          0   MPKI: 0
PSCL5 LOAD      ACCESS:          0  HIT:          0  MISS:          0  HIT %:       -nan  MISS %:       -nan   MPKI: 0
PSCL5 RFO       ACCESS:          0  HIT:          0  MISS:          0  HIT %:       -nan  MISS %:       -nan   MPKI: 0
PSCL5 PREFETCH  ACCESS:          0  HIT:          0  MISS:          0  HIT %:       -nan  MISS %:       -nan   MPKI: 0
PSCL5 WRITEBACK ACCESS:          0  HIT:          0  MISS:          0  HIT %:       -nan  MISS %:       -nan   MPKI: 0
PSCL4 TOTAL     ACCESS:    6293123  HIT:    6293123  MISS:          0  HIT %:        100  MISS %:          0   MPKI: 0
PSCL4 LOAD      ACCESS:          0  HIT:          0  MISS:          0  HIT %:       -nan  MISS %:       -nan   MPKI: 0
PSCL4 RFO       ACCESS:          0  HIT:          0  MISS:          0  HIT %:       -nan  MISS %:       -nan   MPKI: 0
PSCL4 PREFETCH  ACCESS:          0  HIT:          0  MISS:          0  HIT %:       -nan  MISS %:       -nan   MPKI: 0
PSCL4 WRITEBACK ACCESS:          0  HIT:          0  MISS:          0  HIT %:       -nan  MISS %:       -nan   MPKI: 0
PSCL3 TOTAL     ACCESS:    6292416  HIT:    6292335  MISS:         81  HIT %:    99.9987  MISS %: 0.00128726   MPKI: 0.000405
PSCL3 LOAD      ACCESS:          0  HIT:          0  MISS:          0  HIT %:       -nan  MISS %:       -nan   MPKI: 0
PSCL3 RFO       ACCESS:          0  HIT:          0  MISS:          0  HIT %:       -nan  MISS %:       -nan   MPKI: 0
PSCL3 PREFETCH  ACCESS:          0  HIT:          0  MISS:          0  HIT %:       -nan  MISS %:       -nan   MPKI: 0
PSCL3 WRITEBACK ACCESS:          0  HIT:          0  MISS:          0  HIT %:       -nan  MISS %:       -nan   MPKI: 0
PSCL2 TOTAL     ACCESS:    6293123  HIT:    5773053  MISS:     520070  HIT %:    91.7359  MISS %:     8.2641   MPKI: 2.60035
PSCL2 LOAD      ACCESS:          0  HIT:          0  MISS:          0  HIT %:       -nan  MISS %:       -nan   MPKI: 0
PSCL2 RFO       ACCESS:          0  HIT:          0  MISS:          0  HIT %:       -nan  MISS %:       -nan   MPKI: 0
PSCL2 PREFETCH  ACCESS:          0  HIT:          0  MISS:          0  HIT %:       -nan  MISS %:       -nan   MPKI: 0
PSCL2 WRITEBACK ACCESS:          0  HIT:          0  MISS:          0  HIT %:       -nan  MISS %:       -nan   MPKI: 0
=== CPU 1 L1D Prefetcher Statistics ===
[MLOP] History of tracked zone:
IIIIIIIIIIIIIIIIIIIIIIIIIIIIIIIIIIIIIIIIIIIIIIIIIIIIIIIIIIIIIIII
IIIIIIIIIIIIIIIIIIIIIIIIIIIAIIIIIIIIIIIIIIIIIIIIIIIIIIIIIIIIIIII
IIIIIIIIIIIIIIIIIIIIIIIIIIIAAIIIIIIIIIIIIIIIIIIIIIIIIIIIIIIIIIII
IIIIIIIIIIIIIIIIIIIIIIIIIIIAIIIIIIIIIIIIIIIIIIIIIIIIIIIIIIIIIIII
IIIIIIIIIIIIIIIIIIIIIIIIIIIAAIIIIIIIIIIIIIIIIIIIIIIIIIIIIIIIIIII
IIIIIIIIIIIIIIIIIIIIIIIIIIIA1IIIIIIIIIIIIIIIIIIIIIIIIIIIIIIIIIII
IIIIIIIIIIIIIIIIIIIIIIIIIIIAA1IIIIIIIIIIIIIIIIIIIIIIIIIIIIIIIIII
IIIIIIIIIIIIIIIIIIIIIIIIIIIA1IIIIIIIIIIIIIIIIIIIIIIIIIIIIIIIIIII
IIIIIIIIIIIIIIIIIIIIIIIIIIIAA1IIIIIIIIIIIIIIIIIIIIIIIIIIIIIIIIII
IIIIIIIIIIIIIIIIIIIIIIIIIIIA1IIIIIIIIIIIIIIIIIIIIIIIIIIIIIIIIIII
IIIIIIIIIIIIIIIIIIIIIIIIIIIAA1IIIIIIIIIIIIIIIIIIIIIIIIIIIIIIIIII
IIIIIIIIIIIIIIIIIIIIIIIIIIIA1IIIIIIIIIIIIIIIIIIIIIIIIIIIIIIIIIII
IIIIIIIIIIIIIIIIIIIIIIIIIIIAA1IIIIIIIIIIIIIIIIIIIIIIIIIIIIIIIIII
IIIIIIIIIIIIIIIIIIIIIIIIIIIA1IIIIIIIIIIIIIIIIIIIIIIIIIIIIIIIIIII
IIIIIIIIIIIIIIIIIIIIIIIIIIIAA1IIIIIIIIIIIIIIIIIIIIIIIIIIIIIIIIII
IIIIIIIIIIIIIIIIIIIIIIIIIIIA2IIIIIIIIIIIIIIIIIIIIIIIIIIIIIIIIIII
IIIIIIIIIIIIIIIIIIIIIIIIIIIAA2IIIIIIIIIIIIIIIIIIIIIIIIIIIIIIIIII
IIIIIIIIIIIIIIIIIIIIIIIIIIIA1IIIIIIIIIIIIIIIIIIIIIIIIIIIIIIIIIII
IIIIIIIIIIIIIIIIIIIIIIIIIIIAA1IIIIIIIIIIIIIIIIIIIIIIIIIIIIIIIIII
IIIIIIIIIIIIIIIIIIIIIIIIIIIA2IIIIIIIIIIIIIIIIIIIIIIIIIIIIIIIIIII
IIIIIIIIIIIIIIIIIIIIIIIIIIIAA2IIIIIIIIIIIIIIIIIIIIIIIIIIIIIIIIII
IIIIIIIIIIIIIIIIIIIIIIIIIIIA1IIIIIIIIIIIIIIIIIIIIIIIIIIIIIIIIIII
IIIIIIIIIIIIIIIIIIIIIIIIIIIAA1IIIIIIIIIIIIIIIIIIIIIIIIIIIIIIIIII
IIIIIIIIIIIIIIIIIIIIIIIIIIIA1I1II1II1II2IIIIIIIIIIIIIIIIIIIIIIII
IIIIIIIIIIIIIIIIIIIIIIIIIIIAA111I11I11I22IIIIIIIIIIIIIIIIIIIIIII
IIIIIIIIIIIIIIIIIIIIIIIIIIIAIIIIIIIIIIIIIIIIIIIIIIIIIIIIIIIIIIII
IIIIIIIIIIIIIIIIIIIIIIIIIIIAAIIIIIIIIIIIIIIIIIIIIIIIIIIIIIIIIIII
IIIIIIIIIIIIIIIIIIIIIIIIIIIA2IIIIIIIIIIIIIIIIIIIIIIIIIIIIIIIIIII
IIIIIIIIIIIIIIIIIIIIIIIIIIIAA2IIIIIIIIIIIIIIIIIIIIIIIIIIIIIIIIII
IIIIIIIIIIIIIIIIIIIIIIIIIIIA2IIIIIIIIIIIIIIIIIIIIIIIIIIIIIIIIIII
IIIIIIIIIIIIIIIIIIIIIIIIIIIAA2IIIIIIIIIIIIIIIIIIIIIIIIIIIIIIIIII
IIIIIIIIIIIIIIIIIIIIIIIIIIIA2IIIIIIIIIIIIIIIIIIIIIIIIIIIIIIIIIII
IIIIIIIIIIIIIIIIIIIIIIIIIIIAA2IIIIIIIIIIIIIIIIIIIIIIIIIIIIIIIIII
IIIIIIIIIIIIIIIIIIIIIIIIIIIA1IIIIIIIIIIIIIIIIIIIIIIIIIIIIIIIIIII
IIIIIIIIIIIIIIIIIIIIIIIIIIIAA1IIIIIIIIIIIIIIIIIIIIIIIIIIIIIIIIII
IIIIIIIIIIIIIIIIIIIIIIIIIIIA1IIIIIIIIIIIIIIIIIIIIIIIIIIIIIIIIIII
IIIIIIIIIIIIIIIIIIIIIIIIIIIAA1IIIIIIIIIIIIIIIIIIIIIIIIIIIIIIIIII
IIIIIIIIIIIIIIIIIIIIIIIIIIIA2IIIIIIIIIIIIIIIIIIIIIIIIIIIIIIIIIII
IIIIIIIIIIIIIIIIIIIIIIIIIIIAA2IIIIIIIIIIIIIIIIIIIIIIIIIIIIIIIIII
IIIIIIIIIIIIIIIIIIIIIIIIIIIA1IIIIIIIIIIIIIIIIIIIIIIIIIIIIIIIIIII
IIIIIIIIIIIIIIIIIIIIIIIIIIIAA1IIIIIIIIIIIIIIIIIIIIIIIIIIIIIIIIII
IIIIIIIIIIIIIIIIIIIIIIIIIIIA2IIIIIIIIIIIIIIIIIIIIIIIIIIIIIIIIIII
IIIIIIIIIIIIIIIIIIIIIIIIIIIAA2IIIIIIIIIIIIIIIIIIIIIIIIIIIIIIIIII
IIIIIIIIIIIIIIIIIIIIIIIIIIIA1IIIIIIIIIIIIIIIIIIIIIIIIIIIIIIIIIII
IIIIIIIIIIIIIIIIIIIIIIIIIIIAA1IIIIIIIIIIIIIIIIIIIIIIIIIIIIIIIIII
IIIIIIIIIIIIIIIIIIIIIIIIIIIA1I11I1II1II1IIIIIIIIIIIIIIIIIIIIIIII
IIIIIIIIIIIIIIIIIIIIIIIIIIIAA111111I11I11IIIIIIIIIIIIIIIIIIIIIII
IIIIIIIIIIIIIIIIIIIIIIIIIIIA1IIIIIIIIIIIIIIIIIIIIIIIIIIIIIIIIIII
IIIIIIIIIIIIIIIIIIIIIIIIIIIAA1IIIIIIIIIIIIIIIIIIIIIIIIIIIIIIIIII
IIIIIIIIIIIIIIIIIIIIIIIIIIIA2IIIIIIIIIIIIIIIIIIIIIIIIIIIIIIIIIII
IIIIIIIIIIIIIIIIIIIIIIIIIIIAA2IIIIIIIIIIIIIIIIIIIIIIIIIIIIIIIIII
IIIIIIIIIIIIIIIIIIIIIIIIIIIA1IIIIIIIIIIIIIIIIIIIIIIIIIIIIIIIIIII
IIIIIIIIIIIIIIIIIIIIIIIIIIIAA1IIIIIIIIIIIIIIIIIIIIIIIIIIIIIIIIII
IIIIIIIIIIIIIIIIIIIIIIIIIIIA2IIIIIIIIIIIIIIIIIIIIIIIIIIIIIIIIIII
IIIIIIIIIIIIIIIIIIIIIIIIIIIAA2IIIIIIIIIIIIIIIIIIIIIIIIIIIIIIIIII
IIIIIIIIIIIIIIIIIIIIIIIIIIIA2IIIIIIIIIIIIIIIIIIIIIIIIIIIIIIIIIII
IIIIIIIIIIIIIIIIIIIIIIIIIIIAA2IIIIIIIIIIIIIIIIIIIIIIIIIIIIIIIIII
[MLOP] Prefetch Degree Mean: 1.43396
[MLOP] Prefetch Degree SD: 1.39483
[MLOP] Max Score Left Mean (%): 13.2722
[MLOP] Max Score Left SD (%): 15.5522
[MLOP] Max Score Right Mean (%): 42.927
[MLOP] Max Score Right SD (%): 14.0124
LLC TOTAL     ACCESS:    2299388  HIT:     619721  MISS:    1679667  HIT %:    26.9516  MISS %:    73.0484   MPKI: 8.39833
LLC LOAD      ACCESS:     896190  HIT:     258477  MISS:     637713  HIT %:    28.8418  MISS %:    71.1582   MPKI: 3.18856
LLC RFO       ACCESS:      32345  HIT:       1880  MISS:      30465  HIT %:    5.81234  MISS %:    94.1877   MPKI: 0.152325
LLC PREFETCH  ACCESS:    1149362  HIT:     202673  MISS:     946689  HIT %:    17.6335  MISS %:    82.3665   MPKI: 4.73344
LLC WRITEBACK ACCESS:      35624  HIT:      31264  MISS:       4360  HIT %:    87.7611  MISS %:    12.2389   MPKI: 0.0218

RAW hits: 375340
Loads Generated: 22549449
Loads sent to L1D: 22174101
Stores Generated: 2808136
Stores sent to L1D: 2808136

CPU 2 cumulative IPC: 0.92331 instructions: 264427875 cycles: 286391096
ITLB TOTAL     ACCESS:   37923777  HIT:   36198475  MISS:    1725302  HIT %:    95.4506  MISS %:    4.54939   MPKI: 6.52466
ITLB LOAD      ACCESS:          0  HIT:          0  MISS:          0  HIT %:       -nan  MISS %:       -nan   MPKI: 0
ITLB RFO       ACCESS:          0  HIT:          0  MISS:          0  HIT %:       -nan  MISS %:       -nan   MPKI: 0
ITLB PREFETCH  ACCESS:          0  HIT:          0  MISS:          0  HIT %:       -nan  MISS %:       -nan   MPKI: 0
ITLB WRITEBACK ACCESS:          0  HIT:          0  MISS:          0  HIT %:       -nan  MISS %:       -nan   MPKI: 0
DTLB TOTAL     ACCESS:   20710248  HIT:    9596892  MISS:   11113356  HIT %:    46.3389  MISS %:    53.6611   MPKI: 42.0279
DTLB LOAD      ACCESS:          0  HIT:          0  MISS:          0  HIT %:       -nan  MISS %:       -nan   MPKI: 0
DTLB RFO       ACCESS:          0  HIT:          0  MISS:          0  HIT %:       -nan  MISS %:       -nan   MPKI: 0
DTLB PREFETCH  ACCESS:          0  HIT:          0  MISS:          0  HIT %:       -nan  MISS %:       -nan   MPKI: 0
DTLB WRITEBACK ACCESS:          0  HIT:          0  MISS:          0  HIT %:       -nan  MISS %:       -nan   MPKI: 0
STLB TOTAL     ACCESS:   14087299  HIT:    6639337  MISS:    7447962  HIT %:      47.13  MISS %:      52.87   MPKI: 28.1663
STLB LOAD      ACCESS:          0  HIT:          0  MISS:          0  HIT %:       -nan  MISS %:       -nan   MPKI: 0
STLB RFO       ACCESS:          0  HIT:          0  MISS:          0  HIT %:       -nan  MISS %:       -nan   MPKI: 0
STLB PREFETCH  ACCESS:          0  HIT:          0  MISS:          0  HIT %:       -nan  MISS %:       -nan   MPKI: 0
[...]
AAAAA2IAAA1IA1IIA2IIIIIIAAAA2IIIIIIIIA1IIA1A2A1IIIIIAA1IIIA1IIII
AAAAA2IAAA1IA1IIA2IIIIIIAAAA2IIIIIIIIA1IIA1A2A1IIIIIAA1IA1A1IIII
AAAAA2IAAA1IA1IIA2IIIIIIAAAA2IIIIIIIIA1IIA1A2A1IIIIIAA1IA1A1IIA1
AAAAA2IAAA1IA1IIA2IIIIIIAAAA2IIIIIIIIA1IIA1A2A1IIIIAAA1IA1A1IIA1
AAAAA2IAAA1IA1IIA2IIIIIIAAAA2IIA1IIIIA1IIA1A2A1IIIIAAA1IA1A1IIA1
AAAAA2IAAA1IA1IIA2IIIIIIAAAA2IIA1IIIIA1IIA1A1A1IIIIAAA1IA1A1IIA1
AAAAA2IAAA1IA1IIA2IIIIIIAAAA2IIA1IIIIA1IIA1A1AA1IIIAAA1IA1A1IIA1
AAAAA2IAAA1IA1IIA2IIIIIIAAAA2IIA1IIA1A1IIA1A1AA1IIIAAA1IA1A1IIA1
AAAAA2IAAA1IA1IIA2IIA1IIAAAA2IIA1IIA1A1IIA1A1AA1IIIAAA1IA1A1IIA1
AAAAA2IAAA1AA1IIA2IIA1IIAAAA2IIA1IIA1A1IIA1A1AA1IIIAAA1IA1A1IIA1
AAAAA2IAAAAAA1IIA2IIA1IIAAAA2IIA1IIA1A1IIA1A1AA1IIIAAA1IA1A1IIA1
AAAAA2IAAAAAA1IIA2IIA1IIAAAA2IIA1A2A1A1IIA1A1AA1IIIAAA1IA1A1IIA1
AAAAA2IAAAAAA1IIA2IIA1IIAAAA2IIA1A2A1A1IIA1A1AA1IIIAAA1IA1A1IIAA
AAAAA2IAAAAAA1IIA2IIA1IIAAAA2IAA1A2A1A1IIA1A1AA1IIIAAA1IA1A1IIAA
AAAAA2IAAAAAA1IIA2IIA1IIAAAA2IAA1A2AAA1IIA1A1AA1IIIAAA1IA1A1IIAA
AAAAA2IAAAAAA1IIA2IIA1IIAAAA2IAA1A2AAA1IIA1A1AA1IIIAAA1IA1A1A1AA
AAAAA2IAAAAAA1IIA2IIA1IIAAAA2IAA1A2AAA1IIA1A1AA1IIIAAA1IA1AAA1AA
AAAAA2IAAAAAA1IIA2IIA1IIAAAA2IAA1A2AAA1IIA1AAAA1IIIAAA1IA1AAA1AA
AAAAA2IAAAAAA1IIA2IIA1IIAAAA2IAA1A2AAA1IIA1AAAAA2IIAAA1IA1AAA1AA
AAAAA2IAAAAAA1IIA2IIAA2IAAAA2IAA1A2AAA1IIA1AAAAA2IIAAA1IA1AAA1AA
AAAAA2IAAAAAA1IIA2IIAA2IAAAA2IAA1A2AAA1IIA1AAAAA2A1AAA1IA1AAA1AA
AAAAA2IAAAAAA1IIA2IIAA2IAAAA2IAA1AAAAA1IIA1AAAAA2A1AAA1IA1AAA1AA
AAAAA2IAAAAAA1IIA2IIAA1IAAAA2IAA1AAAAA1IIA1AAAAA2A1AAA1IA1AAA1AA
AAAAA2IAAAAAA1IIA2IIAA1IAAAA2IAA1AAAAA1IIA1AAAAA2A1AAA1AA1AAA1AA
AAAAA2IAAAAAA1IIA2IIAA1IAAAA2IAAAAAAAA1IIA1AAAAA2A1AAA1AA1AAA1AA
AAAAA2IAAAAAA1IIA2IIAA1IAAAA2IAAAAAAAA1IIA1AAAAA2A1AAA1AA1AAAAAA
AAAAA2IAAAAAA1IIA2IIAA1IAAAA2IAAAAAAAAA2IA1AAAAA2A1AAA1AA1AAAAAA
AAAAA2IAAAAAAA2IA2IIAA1IAAAA2IAAAAAAAAA2IA1AAAAA2A1AAA1AA1AAAAAA
AAAAA2IAAAAAAA2IA2IIAA1IAAAA2IAAAAAAAAA2IA1AAAAA2AAAAA1AA1AAAAAA
AAAAA2IAAAAAAA2IA2IIAA1IAAAA2IAAAAAAAAA2IA1AAAAA2AAAAAAAA1AAAAAA
AAAAA2IAAAAAAA2IA2IIAA1IAAAA2IAAAAAAAAA2IA1AAAAA2AAAAAAAAAAAAAAA
AAAAAA1AAAAAAA2IA2IIAA1IAAAA2IAAAAAAAAA2IA1AAAAA2AAAAAAAAAAAAAAA
AAAAAA1AAAAAAA2IAA2IAA1IAAAA2IAAAAAAAAA2IA1AAAAA2AAAAAAAAAAAAAAA
AAAAAA1AAAAAAA2IAA2IAA1IAAAA2IAAAAAAAAAA2A1AAAAA2AAAAAAAAAAAAAAA
AAAAAA1AAAAAAA2IAA2IAA1IAAAAA2AAAAAAAAAA2A1AAAAA2AAAAAAAAAAAAAAA
AAAAAA1AAAAAAA2IAA2IAA1IAAAAA2AAAAAAAAAA2AAAAAAA2AAAAAAAAAAAAAAA
AAAAAA1AAAAAAA2IAA2IAA1AAAAAA2AAAAAAAAAA2AAAAAAA2AAAAAAAAAAAAAAA
AAAAAA1AAAAAAA2IAA2IAAAAAAAAA2AAAAAAAAAA2AAAAAAA2AAAAAAAAAAAAAAA
AAAAAA1AAAAAAA2IAA2IAAAAAAAAA2AAAAAAAAAA1AAAAAAA2AAAAAAAAAAAAAAA
AAAAAA1AAAAAAA2IAA2IAAAAAAAAA2AAAAAAAAAA1AAAAAAAAAAAAAAAAAAAAAAA
AAAAAA1AAAAAAA2IAAA2AAAAAAAAA2AAAAAAAAAA1AAAAAAAAAAAAAAAAAAAAAAA
AAAAAA1AAAAAAA2AAAA2AAAAAAAAA2AAAAAAAAAA1AAAAAAAAAAAAAAAAAAAAAAA
AAAAAA1AAAAAAAAAAAA2AAAAAAAAA2AAAAAAAAAA1AAAAAAAAAAAAAAAAAAAAAAA
AAAAAAAAAAAAAAAAAAA2AAAAAAAAA2AAAAAAAAAA1AAAAAAAAAAAAAAAAAAAAAAA
AAAAAAAAAAAAAAAAAAA2AAAAAAAAAAAAAAAAAAAA1AAAAAAAAAAAAAAAAAAAAAAA
AAAAAAAAAAAAAAAAAAA2AAAAAAAAAAAAAAAAAAAAAAAAAAAAAAAAAAAAAAAAAAAA
IIIIIIIA1IIIIIIIIIIIIIIIIIIIIIIIIIIIIIIIIIIIIIIIIIIIIIIIIIIIIIII
IIA1IIIA1IIIIIIIIIIIIIIIIIIIIIIIIIIIIIIIIIIIIIIIIIIIIIIIIIIIIIII
IIA1IIIA1IIIIIIIIIIIIIIIA1IIIIIIIIIIIIIIIIIIIIIIIIIIIIIIIIIIIIII
IIA1IIIA1IIIIIIIIIIIIIIIA1IIIIIIIIIIIIIIIIIIIIIIIIIA1IIIIIIIIIII
IIA1IIIA1IIIIIIA1IIIIIIIA1IIIIIIIIIIIIIIIIIIIIIIIIIA1IIIIIIIIIII
IIA1IIIA1IIIIIIA1IIIIA1IA1IIIIIIIIIIIIIIIIIIIIIIIIIA1IIIIIIIIIII
IIA1IIIA1IIIIIIA1IIIIA1IA1IIIIIIIIIIIIIIIIIIIIIIIIIA1IIIIA1IIIII
IIA1IIIAA1IIIIIA1IIIIA1IA1IIIIIIIIIIIIIIIIIIIIIIIIIA1IIIIA1IIIII
IIA1IIIAA1IIIIIA1IIIIA1IA1IIIIIIIIIIIIIIIIIIIIIIIIIA1IIIIA1IIIA1
IIA1IIIAA1IIIIIA1IIIIA1IA1IIIA1IIIIIIIIIIIIIIIIIIIIA1IIIIA1IIIA1
IIA1IIIAA1IIIIAA1IIIIA1IA1IIIA1IIIIIIIIIIIIIIIIIIIIA1IIIIA1IIIA1
IIA1IIIAA1IIIIAA1IIIIA1IA1IIIA1IIIIIIIIIIIIIA1IIIIIA1IIIIA1IIIA1
A2A1IIIAA1IIIIAA1IIIIA1IA1IIIA1IIIIIIIIIIIIIA1IIIIIA1IIIIA1IIIA1
A2A1IIIAA1IIIIAA1IIIIA1IA1IIIA1IIIIIIIIIIIIIA1IA2IIA1IIIIA1IIIA1
A2A1IIIAA1IIIIAA1IIIIA1IA1IIIA1IIIIIIIIA2IIIA1IA2IIA1IIIIA1IIIA1
A2A1IIIAA1IIIIAA1IIIIA1IA1IIIA1IIIIIIIIA2A2IA1IA2IIA1IIIIA1IIIA1
A2A1IIIAA1IIIIAA1IIIIA1IA1IIIA1IIIIIA2IA2A2IA1IA2IIA1IIIIA1IIIA1
A2A1IIIAA1IIIIAA1IIIIA1IA1A2IA1IIIIIA2IA2A2IA1IA2IIA1IIIIA1IIIA1
A2A1IIIAA1IIIIAA1IIIIA1IAAA2IA1IIIIIA2IA2A2IA1IA2IIA1IIIIA1IIIA1
A2A1IIIAA1IIIIAA1IIIIAA1AAA2IA1IIIIIA2IA2A2IA1IA2IIA1IIIIA1IIIA1
A2A1IIIAA1IIIIAA1IIIIAA1AAA2AA1IIIIIA2IA2A2IA1IA2IIA1IIIIA1IIIA1
A2A1IIIAA1IIIIAA1IIIIAA1AAA1AA1IIIIIA2IA2A2IA1IA2IIA1IIIIA1IIIA1
A2A1IIIAA1IIIIAA1IIIIAAAAAA1AA1IIIIIA2IA2A2IA1IA2IIA1IIIIA1IIIA1
A2A1IIIAA1IIIIAA1IIIIAAAAAA1AA1IIIIIA2IA2A2IA1IA1IIA1IIIIA1IIIA1
A2A1IIIAA1IIIIAA1AIIIAAAAAA1AA1IIIIIA2IA2A2IA1IA1IIA1IIIIA1IIIA1
A2A1AIIAA1IIIIAA1AIIIAAAAAA1AA1IIIIIA2IA2A2IA1IA1IIA1IIIIA1IIIA1
A2A1AIIAA1IIIIAA1AIIIAAAAAA1AA1IIAIIA2IA2A2IA1IA1IIA1IIIIA1IIIA1
A2A1AIIAA1IIIIAA1AIIAAAAAAA1AA1IIAIIA2IA2A2IA1IA1IIA1IIIIA1IIIA1
A2AAAIIAA1IIIIAA1AIIAAAAAAA1AA1IIAIIA2IA2A2IA1IA1IIA1IIIIA1IIIA1
A2AAAIIAA1IIIIAA1AAIAAAAAAA1AA1IIAIIA2IA2A2IA1IA1IIA1IIIIA1IIIA1
A2AAAIIAA1IIIAAA1AAIAAAAAAA1AA1IIAIIA2IA2A2IA1IA1IIA1IIIIA1IIIA1
A2AAAIIAA1IIIAAA1AAIAAAAAAA1AA1IIAIIA2IA2A2IA1IA1IIA1IIIIA1AIIA1
A2AAAIIAA1IIIAAAAAAIAAAAAAA1AA1IIAIIA2IA2A2IA1IA1IIA1IIIIA1AIIA1
A2AAAA1AA1IIIAAAAAAIAAAAAAA1AA1IIAIIA2IA2A2IA1IA1IIA1IIIIA1AIIA1
A2AAAA1AA1IIIAAAAAAIAAAAAAA1AA1IIAIIA2IA2A2IAA1A1IIA1IIIIA1AIIA1
A2AAAA1AA1IIIAAAAAAIAAAAAAA1AA1IIAIIA2IA2A2IAA1A1IIA1IIIIAAAIIA1
A2AAAA1AA1IIIAAAAAAIAAAAAAA1AA1IIAIIA2AA2A2IAA1A1IIA1IIIIAAAIIA1
A2AAAA1AA1IIIAAAAAAIAAAAAAA1AA1IIAIIA2AA2A2IAA1A1IIA1IIIIAAA1IA1
A2AAAA1AA1IA1AAAAAAIAAAAAAA1AA1IIAIIA2AA2A2IAA1A1IIA1IIIIAAA1IA1
A2AAAA1AA1IA1AAAAAAIAAAAAAA1AA1IIAIIA2AA2A1IAA1A1IIA1IIIIAAA1IA1
A2AAAA1AA1IA1AAAAAAIAAAAAAA1AAA1IAIIA2AA2A1IAA1A1IIA1IIIIAAA1IA1
A2AAAA1AA1IA1AAAAAAIAAAAAAA1AAA1IAIIAAAA2A1IAA1A1IIA1IIIIAAA1IA1
A2AAAA1AA1IA1AAAAAAIAAAAAAA1AAA1IAIIAAAA2A1IAA1A1IIAA2IIIAAA1IA1
A2AAAA1AA1IA1AAAAAAIAAAAAAA1AAA1IAIIAAAA2A1IAA1A1IIAA2IIIAAAA2A1
A2AAAA1AA1IA1AAAAAAIAAAAAAA1AAA1IAIIAAAA2A1IAA1A1IIAA2IIIAAAA2AA
A2AAAA1AA1IA1AAAAAAIAAAAAAA1AAA1IAIIAAAA2A1IAA1A1IIAA2IA1AAAA2AA
A2AAAA1AA1IA1AAAAAAIAAAAAAA1AAA1IAIIAAAA2A1IAA1A1A1AA2IA1AAAA2AA
A2AAAA1AA1IA1AAAAAAIAAAAAAA1AAA1IAIIAAAA2A1IAA1A1A1AA2IA1AAAA1AA
A2AAAA1AA1IA1AAAAAAIAAAAAAA1AAA1IAIIAAAA2A1IAA1A1A1AA1IA1AAAA1AA
A2AAAA1AA1IA1AAAAAAAAAAAAAA1AAA1IAIIAAAA2A1IAA1A1A1AA1IA1AAAA1AA
A2AAAA1AA1IA1AAAAAAAAAAAAAA1AAA1IAIIAAAA2A1IAAAA1A1AA1IA1AAAA1AA
A2AAAA1AA1IA1AAAAAAAAAAAAAA1AAA1IA1IAAAA2A1IAAAA1A1AA1IA1AAAA1AA
A2AAAA1AA1AA1AAAAAAAAAAAAAA1AAA1IA1IAAAA2A1IAAAA1A1AA1IA1AAAA1AA
A2AAAA1AA1AA1AAAAAAAAAAAAAA1AAA1IA1IAAAA2A1AAAAA1A1AA1IA1AAAA1AA
A2AAAA1AA1AA1AAAAAAAAAAAAAA1AAA1IA1IAAAA2AAAAAAA1A1AA1IA1AAAA1AA
A2AAAA1AA1AA1AAAAAAAAAAAAAA1AAA1IA1IAAAA2AAAAAAA1A1AA1IAAAAAA1AA
A2AAAA1AA1AA1AAAAAAAAAAAAAA1AAA1IA1IAAAAAAAAAAAA1A1AA1IAAAAAA1AA
A2AAAA1AA1AAAAAAAAAAAAAAAAA1AAA1IA1IAAAAAAAAAAAA1A1AA1IAAAAAA1AA
IIIIIIIIIIIIIIIIIIIIIIIIIIIIIIIIIIIIIIIIIIIA1IIIIIIIIIIIIIIIIIII
IIIIIIIIIIIIA1IIIIIIIIIIIIIIIIIIIIIIIIIIIIIA1IIIIIIIIIIIIIIIIIII
IIIIIIIIIA1IA1IIIIIIIIIIIIIIIIIIIIIIIIIIIIIA1IIIIIIIIIIIIIIIIIII
IIIIIIIIIA1IA1IIIIIIIIIIIIIIIIIIIIIIIIIIIIIA1IA1IIIIIIIIIIIIIIII
IIIIIIIIIA1IA1IIIIIIIA1IIIIIIIIIIIIIIIIIIIIA1IA1IIIIIIIIIIIIIIII
IIIIIIIIIA1IA1IIIIIIIA1IIIIIIIIIIIIIIIIIIIIA1IAA2IIIIIIIIIIIIIII
IIIIIIIIIA1IA1IIIIIIIA1IIIIIIIIIIIIIIIIIIIIA1IAA2IIIIIIIIIIIIIA2
IIIIIIIIIA1IA1IIIIIA2A1IIIIIIIIIIIIIIIIIIIIA1IAA2IIIIIIIIIIIIIA2
IIIIIIIIIA1IA1IIIIIA2A1IIIIIIIIIA2IIIIIIIIIA1IAA2IIIIIIIIIIIIIA2
IIIIIIA2IA1IA1IIIIIA2A1IIIIIIIIIA2IIIIIIIIIA1IAA2IIIIIIIIIIIIIA2
IIIIIIA2IA1IA1IIIIIA2A1IIIIIIIIIA2IIIIIIIIIA1IAA2A2IIIIIIIIIIIA2
IA2IIIA2IA1IA1IIIIIA2A1IIIIIIIIIA2IIIIIIIIIA1IAA2A2IIIIIIIIIIIA2
IA2IIIA2IA1IA1IIIIIA2A1IIIIIIIIIA2IIIIIIIIAA1IAA2A2IIIIIIIIIIIA2
IA2IIIA2IA1IA1IIIIIA2A1IIIIIIIIIA2IIIIIIIIAA1IAA2A2IIIIIIIIIIIAA
IA2IIIA2IA1IA1IIIIIA2A1IIA1IIIIIA2IIIIIIIIAA1IAA2A2IIIIIIIIIIIAA
IA2IIIA2IA1IA1IIIIIA2A1IIA1IIIIIA2IIA1IIIIAA1IAA2A2IIIIIIIIIIIAA
IA2IIIA2IA1IA1IIIIIA2A1IIA1IIIIIA2IIA1IIIIAA1IAA2A2IIIIIIA1IIIAA
IA2IIIAA1A1IA1IIIIIA2A1IIA1IIIIIA2IIA1IIIIAA1IAA2A2IIIIIIA1IIIAA
IA2IIIAA1A1IA1IIIIIA2A1IIA1IIIIIA2IIA1IIIIAA1IAA2A2IIIA1IA1IIIAA
IA2IIIAA1A1IA1IIA1IA2A1IIA1IIIIIA2IIA1IIIIAA1IAA2A2IIIA1IA1IIIAA
IA2IIIAA1A1IAA1IA1IA2A1IIA1IIIIIA2IIA1IIIIAA1IAA2A2IIIA1IA1IIIAA
IA2A1IAA1A1IAA1IA1IA2A1IIA1IIIIIA2IIA1IIIIAA1IAA2A2IIIA1IA1IIIAA
IA2A1IAAAA1IAA1IA1IA2A1IIA1IIIIIA2IIA1IIIIAA1IAA2A2IIIA1IA1IIIAA
IA2A1IAAAA1IAA1IA1IA2AA2IA1IIIIIA2IIA1IIIIAA1IAA2A2IIIA1IA1IIIAA
IA2A1IAAAA1IAA1IA1IA2AA2IA1IIIIIA2IIA1IIIIAA1IAAAA2IIIA1IA1IIIAA
IA2A1IAAAA1IAA1IA1IA2AA2IAA2IIIIA2IIA1IIIIAA1IAAAA2IIIA1IA1IIIAA
IA2A1IAAAA1IAA1IA1IA2AAA2AA2IIIIA2IIA1IIIIAA1IAAAA2IIIA1IA1IIIAA
IA2A1IAAAAA2AA1IA1IA2AAA2AA2IIIIA2IIA1IIIIAA1IAAAA2IIIA1IA1IIIAA
IA2A1IAAAAAAAA1IA1IA2AAA2AA2IIIIA2IIA1IIIIAA1IAAAA2IIIA1IA1IIIAA
IA2A1AAAAAAAAA1IA1IA2AAA2AA2IIIIA2IIA1IIIIAA1IAAAA2IIIA1IA1IIIAA
IA2A1AAAAAAAAA1AA1IA2AAA2AA2IIIIA2IIA1IIIIAA1IAAAA2IIIA1IA1IIIAA
AA2A1AAAAAAAAA1AA1IA2AAA2AA2IIIIA2IIA1IIIIAA1IAAAA2IIIA1IA1IIIAA
AA2A1AAAAAAAAA1AA1IA2AAA2AA2IIIIAA2IA1IIIIAA1IAAAA2IIIA1IA1IIIAA
AA2A1AAAAAAAAA1AA1IA2AAA2AA21II1AA1IA1IIIIAA1IAAAA2IIIA1IA1IIIAA
AA2A1AAAAAAAAA1AA1IA2AAA2AA21II1AA1IA1A1IIAA1IAAAA1I1IA1IA1IIIAA
AA2A1AAAAAAAAA1AA1IA2AAA2AA21II1AA1IA1A11IAA11AAAA1I1IA1IA1IIIAA
AA2A1AAAAAAAAA1AA1IA2AAA2AA21II1AA1IA1A11IAA11AAAA1I1IA1IA1I1IAA
AA2A1AAAAAAAAA1AA12A2AAA2AA21II1AA1IA1A11IAA11AAAA1I1IA1IA1I1IAA
AA2A1AAAAAAAAA1AA12A2AAA2AA21IA1AA12A1A11IAA11AAAA1I1IA1IA1I1IAA
AAAA1AAAAAAAAA1AA12A2AAA2AA21IA1AA12A1A11IAA11AAAA1I1IA1IA1I1IAA
AAAA1AAAAAAAAA1AA12A2AAA2AA2A1A1AA12A1A11IAA11AAAA1I1IA1IA1I1IAA
AAAA1AAAAAAAAA1AA12A2AAA2AA2A1A1AA12A1A11IAA11AAAA1I1IA1AA1I1IAA
AAAA1AAAAAAAAA1AA12A2AAA2AA2A1A1AA12A1A11IAA11AAAA1I1IA1AA1IA1AA
AAAA1AAAAAAAAA1AA12A2AAA2AA2A1A1AA12AAA11IAA11AAAA1I1IA1AA1IA1AA
AAAA1AAAAAAAAA1AA12A2AAA1AA2A1A1AA12AAA11IAA11AAAA1I1IA1AA1IA1AA
IIIIIIIIIIIIIIIIIIIIIIIIIIIIIIIIIIIIIIIIIIIIIIIIIIIIA2IIIIIIIIII
IIIA2IIIIIIIIIIIIIIIIIIIIIIIIIIIIIIIIIIIIIIIIIIIIIIIA2IIIIIIIIII
IIIA2IIIIIIIIIIIIIIIIIIIIIIIIIIA2IIIIIIIIIIIIIIIIIIIA2IIIIIIIIII
IIIA2IIIIIIIIIIIIIIIIIIIIIIIIIAA2IIIIIIIIIIIIIIIIIIIA2IIIIIIIIII
IIIA2IIIIIIIIIIIIIIIIIIIIIIIIIAA2IIIIIIIIIIIIIIIIIIIA2A2IIIIIIII
IIIA2IIIIIIIIIIIIIIIIIIIIIIIIAAA2IIIIIIIIIIIIIIIIIIIA2A2IIIIIIII
IIIA2IIIIIIA1IIIIIIIIIIIIIIIIAAA2IIIIIIIIIIIIIIIIIIIA2A2IIIIIIII
IIIA2IIIIIIA1IIIIIIIIIIIIIIIIAAA2IIIIIIIIIIIIIIIIIIIA2A2IIIIIIIA
IIIA2IIIIIIA1A1IIIIIIIIIIIIIIAAA2IIIIIIIIIIIIIIIIIIIA2A2IIIIIIIA
IIIA2IIIIIIA1A1IIIIIIIIIIIIIIAAA2IIIIIIIIIIIIIIIIIIIAAA2IIIIIIIA
IIIA2IIA1IIA1A1IIIIIIIIIIIIIIAAA2IIIIIIIIIIIIIIIIIIIAAA2IIIIIIIA
IIIA2IIA1IIA1A1IIIIIIIIIIIIIIAAA2IIIIIIIIIIIIIIIIIIIAAA2IIA1IIIA
IIIA2IIA1IIA1A1IIIIIIIIIIIIIIAAA1IIIIIIIIIIIIIIIIIIIAAA2IIA1IIIA
IIIA2IIA1IIA1A1IIIIIIIIIIIIA1AAA1IIIIIIIIIIIIIIIIIIIAAA2IIA1IIIA
IIIA2IIA1IIA1A1IIIIIIIIIIIIA1AAA1IIIIIIIIIIIIIIIIIIIAAA2IIA1IA1A
IIIA2IIA1IIA1A1IIIIIIIIIA1IA1AAA1IIIIIIIIIIIIIIIIIIIAAA2IIA1IA1A
IIIA2IIA1IIA1A1IIIIIIIIIA1IA1AAA1IIIIIIIIIIIIA1IIIIIAAA2IIA1IA1A
IIIA2IIA1IIA1A1IIIIIIIIIA1IA1AAA1IIIIIIIIIIIIA1IIIIIAAA2A1A1IA1A
IIIA2IIA1IIA1A1IIIIIIIIIA1AA1AAA1IIIIIIIIIIIIA1IIIIIAAA2A1A1IA1A
IIIA2IAA1IIA1A1IIIIIIIIIA1AA1AAA1IIIIIIIIIIIIA1IIIIIAAA2A1A1IA1A
IIIAA2AA1IIA1A1IIIIIIIIIA1AA1AAA1IIIIIIIIIIIIA1IIIIIAAA2A1A1IA1A
IIIAA2AA1IIA1A1IIIIIIIIIA1AA1AAA1IIIIIIIIA2IIA1IIIIIAAA2A1A1IA1A
IIIAA2AA1IIA1A1IIA2IIIIIA1AA1AAA1IIIIIIIIA2IIA1IIIIIAAA2A1A1IA1A
IIIAA2AA1IIA1A1IIA2IIIIIA1AA1AAA1A2IIIIIIA2IIA1IIIIIAAA2A1A1IA1A
IIAAA2AA1IIA1A1IIA2IIIIIA1AA1AAA1A2IIIIIIA2IIA1IIIIIAAA2A1A1IA1A
IIAAA2AA1IIA1A1A2A2IIIIIA1AA1AAA1A2IIIIIIA2IIA1IIIIIAAA2A1A1IA1A
IIAAA2AA1IIA1A1A2A1IIIIIA1AA1AAA1A2IIIIIIA2IIA1IIIIIAAA2A1A1IA1A
IIAAA2AA1IIA1A1A2A1IIIA1A1AA1AAA1A2IIIIIIA2IIA1IIIIIAAA2A1A1IA1A
IIAAA2AA1IIA1A1A2A1IIIAAA1AA1AAA1A2IIIIIIA2IIA1IIIIIAAA2A1A1IA1A
IIAAA2AA1IIA1A1A2A1IIIAAA1AA1AAA1A2IIIIIIA2IIAA1IIIIAAA2A1A1IA1A
IIAAA2AA1IIA1A1A2A1IIIAAA1AA1AAA1A2IIIIIIA2IIAA1IIIAAAA2A1A1IA1A
IIAAA2AA1A1A1A1A2A1IIIAAA1AA1AAA1A2IIIIIIA2IIAA1IIIAAAA2A1A1IA1A
IAAAA2AA1A1A1A1A2A1IIIAAA1AA1AAA1A2IIIIIIA2IIAA1IIIAAAA2A1A1IA1A
IAAAA2AA1AAA1A1A2A1IIIAAA1AA1AAA1A2IIIIIIA2IIAA1IIIAAAA2A1A1IA1A
IAAAA2AA1AAA1A1A2A1IIIAAA1AA1AAA1A2IIIIIIA2IIAA1IIIAAAA2AAA1IA1A
IAAAA2AA1AAA1A1A2A1IIIAAA1AA1AAA1A2IIIIIIA1IIAA1IIIAAAA2AAA1IA1A
IAAAA2AA1AAA1A1A2A1IIIAAA1AA1AAA1A2IIIIIIAA1IAA1IIIAAAA2AAA1IA1A
IIIA1IIIIIIIIIIIIIIIIIIIIIIIIIIIIIIIIIIIIIIIIIIIIIIIIIIIIIIIIIII
IIIA1IIIIIIIIIIIIIIIIIIIIIIA1IIIIIIIIIIIIIIIIIIIIIIIIIIIIIIIIIII
IIAA1IIIIIIIIIIIIIIIIIIIIIIA1IIIIIIIIIIIIIIIIIIIIIIIIIIIIIIIIIII
IIAA1IIIIIIIIIIIIIIIIIIIA2IA1IIIIIIIIIIIIIIIIIIIIIIIIIIIIIIIIIII
IIAA1IIIIIIIIIIIIIIIIIIIA2IA1IIIIIIIIIIIIIIIIIIIIIIIA2IIIIIIIIII
A2AA1IIIIIIIIIIIIIIIIIIIA2IA1IIIIIIIIIIIIIIIIIIIIIIIA2IIIIIIIIII
A2AA1IIIIIIIIIIIIIIIIIIIA2AA1IIIIIIIIIIIIIIIIIIIIIIIA2IIIIIIIIII
A2AA1IIIIIIIIIIIIIIIIIIIA2AA1IIIIIIIIIIIIA2IIIIIIIIIA2IIIIIIIIII
A2AA1IIIIIIIIIIIIIIIIIIIA2AA1IIIIIIIIA2IIA2IIIIIIIIIA2IIIIIIIIII
A2AA1IIIIA2IIIIIIIIIIIIIA2AA1IIIIIIIIA2IIA2IIIIIIIIIA2IIIIIIIIII
A2AA1IIIIA2IIIIIIIIIIIIIAAAA1IIIIIIIIA2IIA2IIIIIIIIIA2IIIIIIIIII
A2AA1IIIIA2IIIIIIIIIIIIIAAAA1IIIIIIIIA2IIA2IIIIIIIIIAA2IIIIIIIII
A2AA1IIIIA2IIIIIIIIIIIIIAAAA1IIIIIIIIA2IIA2IIA2IIIIIAA2IIIIIIIII
A2AA1IIIIA2IA1IIIIIIIIIIAAAA1IIIIIIIIA2IIA2IIA2IIIIIAA2IIIIIIIII
A2AA1IIIAA2IA1IIIIIIIIIIAAAA1IIIIIIIIA2IIA2IIA2IIIIIAA2IIIIIIIII
A2AAA1IIAA2IA1IIIIIIIIIIAAAA1IIIIIIIIA2IIA2IIA2IIIIIAA2IIIIIIIII
A2AAA1IIAA2IA1IIA1IIIIIIAAAA1IIIIIIIIA2IIA2IIA2IIIIIAA2IIIIIIIII
A2AAA1IAAA2IA1IIA1IIIIIIAAAA1IIIIIIIIA2IIA2IIA2IIIIIAA2IIIIIIIII
A2AAA1IAAA2IA1IIA1IIIIIIAAAA1IIIIIIIIA2IIA2A1A2IIIIIAA2IIIIIIIII
IIIIIIIIIIIIIIIIIIIIIIIIIIIIIIIIIIIIIIIIIA1IIIIIIIIIIIIIIIIIIIII
IA1IIIIIIIIIIIIIIIIIIIIIIIIIIIIIIIIIIIIIIA1IIIIIIIIIIIIIIIIIIIII
IA1IIIIIIIIIIIIIIIIIIIIIIIIIIIIIIIIIIIIIIA1IIIIIIIIIIIIIIIA1IIII
IA1IIIIIIIIIIIIIIIIIIIIIIIIIIIIIIIIIIIIIIA1IIIIIIIIIIIIIA1A1IIII
IA1IIIIIIIIIIIIIIIIIIIIIIIIIIIIIIIIIIIIIIA1IIIIIIIIIIIIIA1A1IIA1
IA1IIIIIIIIIIIIIIIIIIIIIIA2IIIIIIIIIIIIIIA1IIIIIIIIIIIIIA1A1IIA1
IA1IIIIIIIIIIIIIIIIIIIIIIA2IIIIIIIIIIIIIIA1IIIIIIIIA2IIIA1A1IIA1
IA1A2IIIIIIIIIIIIIIIIIIIIA2IIIIIIIIIIIIIIA1IIIIIIIIA2IIIA1A1IIA1
IA1A2IIIIIIIIIIIIIIIIIIIIA2IIIIA2IIIIIIIIA1IIIIIIIIA2IIIA1A1IIA1
IA1A2IIIIIIIIIIIIIIIIIIIIA2IIIIA2IIIIIIIIA1A2IIIIIIA2IIIA1A1IIA1
IA1A2IIIIIIIIIIIIIIIIIIIIA2IIIIA2IIIIIIIIA1A2IA2IIIA2IIIA1A1IIA1
IA1A2IIIIIIIIIIIIIIIIIIIIA2IIIIA2IIA2IIIIA1A2IA2IIIA2IIIA1A1IIA1
IA1A2IIIIIIIA2IIIIIIIIIIIA2IIIIA2IIA2IIIIA1A2IA2IIIA2IIIA1A1IIA1
IA1A2IIIIIIIA2IIIIIIA2IIIA2IIIIA2IIA2IIIIA1A2IA2IIIA2IIIA1A1IIA1
IA1A2IIIIIIAA2IIIIIIA2IIIA2IIIIA2IIA2IIIIA1A2IA2IIIA2IIIA1A1IIA1
IA1A2IIIIIIAA2IIIIIIA2IIIA2A2IIA2IIA2IIIIA1A2IA2IIIA2IIIA1A1IIA1
IA1A2IIIIIIAA2IIIIIIA2IIIA2A2IIA2IIA2IIIIA1A2IA2IIIA1IIIA1A1IIA1
IA1A2IIIIIAAA2IIIIIIA2IIIA2A2IIA2IIA2IIIIA1A2IA2IIIA1IIIA1A1IIA1
IA1A2IIIIIAAA2IIIIIIA2IIIA2A2IIA2A1A2IIIIA1A2IA2IIIA1IIIA1A1IIA1
IA1A2IIIIIAAA2IIIIIIA2IIIA2A2IIA2A1A2IIIIA1A2IA2IIIA1IIIA1A1IIAA
IA1A2IIIIIAAA2IIIIIIA2IIIA2A2IIA2A1A2IIIIA1A2IA1IIIA1IIIA1A1IIAA
IA1A2IIIIIAAA2IIIIIIA2IIIA2A2IAA2A1A2IIIIA1A2IA1IIIA1IIIA1A1IIAA
IA1A2IIIIIAAA2IIIIIIA2IIIA2A2IAA2A1AA1IIIA1A2IA1IIIA1IIIA1A1IIAA
IA1A2IIIIIAAA2IIIIIIA2IIIA2A2IAA2A1AA1IIIA1A1IA1IIIA1IIIA1A1IIAA
IAAA2IIIIIAAA2IIIIIIA2IIIA2A2IAA2A1AA1IIIA1A1IA1IIIA1IIIA1A1IIAA
IAAA2IIA1IAAA2IIIIIIA2IIIA2A2IAA2A1AA1IIIA1A1IA1IIIA1IIIA1A1IIAA
IAAA2IIA1IAAA2IIIIIIA2IIIA2A2IAA2A1AA1IIIA1A1IA1IIIA1IIIA1A1A1AA
IAAA2IIA1IAAA2IIIIIIA2IIIA2A2IAA2A1AA1IIIA1A1IA1IIIA1IIIA1AAA1AA
IAAA2IIA1IAAA2IIIIIIA2IIIA2A2IAA2A1AA1IIIA1AA2A1IIIA1IIIA1AAA1AA
IAAA2IIA1IAAA2IIIIIIA2IIIA2A2IAA2A1AA1IIIA1AAAA1IIIA1IIIA1AAA1AA
IAAA2IIA1IAAA2IIIIIIA2IIIA2A2IAA2A1AA1IIIA1AAAAA2IIA1IIIA1AAA1AA
IAAA2IIA1IAAA2IIIIIIAA2IIA2A2IAA2A1AA1IIIA1AAAAA2IIA1IIIA1AAA1AA
IAAA2IIA1IAAA2IIIIIIAA2IIA2A2IAA2A1AA1IIIA1AAAAA2A1A1IIIA1AAA1AA
IAAA2IIA1IAAA2IIIIIIAA2IIA2A2IAA2AAAA1IIIA1AAAAA2A1A1IIIA1AAA1AA
IAAA2IIA1IAAA2IIIIIIAA2IIA1A2IAA2AAAA1IIIA1AAAAA2A1A1IIIA1AAA1AA
IAAA2IIA1IAAA2IIIIIIAA1IIA1A2IAA2AAAA1IIIA1AAAAA2A1A1IIIA1AAA1AA
IAAA2IIA1IAAA2IIIIIIAA1IIA1A2IAA2AAAA1IIIA1AAAAA2A1A1IIAA1AAA1AA
IAAA2IIA1IAAA2IIIIIIAA1IIA1A2IAAAAAAA1IIIA1AAAAA2A1A1IIAA1AAA1AA
IAAA2IIA1IAAA2IIIIIIAA1IIA1A2IAAAAAAA1IIIA1AAAAA2A1A1IIAA1AAAAAA
IAAA2IIA1IAAA2IIIIIIAA1IIA1A2IAAAAAAA1A2IA1AAAAA2A1A1IIAA1AAAAAA
IAAA2IIA1IAAAA2IIIIIAA1IIA1A2IAAAAAAA1A2IA1AAAAA2A1A1IIAA1AAAAAA
IAAA2IIA1AAAAA2IIIIIAA1IIA1A2IAAAAAAA1A2IA1AAAAA2A1A1IIAA1AAAAAA
IAAA2IIA1AAAAA2IIIIIAA1IIA1A2IAAAAAAA1A2IA1AAAAA2AAA1IIAA1AAAAAA
IAAA2IIA1AAAAA2IIIIIAA1IIA1A2IAAAAAAA1A2IA1AAAAA2AAA1IAAA1AAAAAA
IAAA2IIA1AAAAA2IIIIIAA1IIA1A2IAAAAAAA1A2IA1AAAAA2AAA1IAAAAAAAAAA
IAAA2A2A1AAAAA2IIIIIAA1IIA1A2IAAAAAAA1A2IA1AAAAA2AAA1IAAAAAAAAAA
IAAA2A2A1AAAAA2IIIIIAA1IIAAA2IAAAAAAA1A2IA1AAAAA2AAA1IAAAAAAAAAA
IAAA2A2A1AAAAA2IIA1IAA1IIAAA2IAAAAAAA1A2IA1AAAAA2AAA1IAAAAAAAAAA
IAAAAA2A1AAAAA2IIA1IAA1IIAAA2IAAAAAAA1A2IA1AAAAA2AAA1IAAAAAAAAAA
IAAAAA2A1AAAAA2IIA1IAA1IIAAA2IAAAAAAA1AA1A1AAAAA2AAA1IAAAAAAAAAA
IAAAAA2A1AAAAA2IIA1IAA1IIAAAA2AAAAAAA1AA1A1AAAAA2AAA1IAAAAAAAAAA
IAAAAA2AAAAAAA2IIA1IAA1IIAAAA2AAAAAAA1AA1A1AAAAA2AAA1IAAAAAAAAAA
IAAAAA2AAAAAAA2IIA1IAA1IIAAAA2AAAAAAA1AA1AAAAAAA2AAA1IAAAAAAAAAA
IAAAAA2AAAAAAA2IIA1IAA1A2AAAA2AAAAAAA1AA1AAAAAAA2AAA1IAAAAAAAAAA
IAAAAA2AAAAAAA2IIA1IAAAA2AAAA2AAAAAAA1AA1AAAAAAA2AAA1IAAAAAAAAAA
IAAAAA2AAAAAAA2IIA1IAAAAAAAAA2AAAAAAA1AA1AAAAAAA2AAA1IAAAAAAAAAA
IAAAAA2AAAAAAA2IIA1IAAAAAAAAA2AAAAAAA1AA1AAAAAAAAAAA1IAAAAAAAAAA
IAAAAA2AAAAAAA2IIA1IAAAAAAAAA2AAAAAAA1AA1AAAAAAAAAAAA1AAAAAAAAAA
AAAAAA2AAAAAAA2IIA1IAAAAAAAAA2AAAAAAA1AA1AAAAAAAAAAAA1AAAAAAAAAA
AAAAAA2AAAAAAA2IIAA2AAAAAAAAA2AAAAAAA1AA1AAAAAAAAAAAA1AAAAAAAAAA
AAAAAA2AAAAAAA2IAAA2AAAAAAAAA2AAAAAAA1AA1AAAAAAAAAAAA1AAAAAAAAAA
AAAAAA2AAAAAAA2AAAA2AAAAAAAAA2AAAAAAA1AA1AAAAAAAAAAAA1AAAAAAAAAA
AAAAAA2AAAAAAAAAAAA2AAAAAAAAA2AAAAAAA1AA1AAAAAAAAAAAA1AAAAAAAAAA
AAAAAAAAAAAAAAAAAAA2AAAAAAAAA2AAAAAAA1AA1AAAAAAAAAAAA1AAAAAAAAAA
[MLOP] Prefetch Degree Mean: 1.45463
[MLOP] Prefetch Degree SD: 1.46084
[MLOP] Max Score Left Mean (%): 13.6909
[MLOP] Max Score Left SD (%): 15.3331
[MLOP] Max Score Right Mean (%): 43.6849
[MLOP] Max Score Right SD (%): 14.4808

DRAM Statistics
 CHANNEL 0
 RQ ROW_BUFFER_HIT:     886420  ROW_BUFFER_MISS:    5019645
 DBUS_CONGESTED:       1496
 WQ ROW_BUFFER_HIT:      45718  ROW_BUFFER_MISS:     144480  FULL:          0

 AVG_CONGESTED_CYCLE: 4
 All warmup complete: 5
Channel 0 Bank busy for read cycles: 0
Channel 0 Bank busy for write cycles: 0
Channel 0
Rank 0
0banks busy for read cycles: 6345373
0banks busy for write cycles: 16291
1banks busy for read cycles: 43456411
1banks busy for write cycles: 3819682
2banks busy for read cycles: 66070026
2banks busy for write cycles: 3046895
3banks busy for read cycles: 59105261
3banks busy for write cycles: 2524412
4banks busy for read cycles: 43804172
4banks busy for write cycles: 2148158
5banks busy for read cycles: 25980324
5banks busy for write cycles: 1836079
6banks busy for read cycles: 13545325
6banks busy for write cycles: 1622323
7banks busy for read cycles: 6001359
7banks busy for write cycles: 1673405
8banks busy for read cycles: 2024516
8banks busy for write cycles: 3371085

CPU 0 Branch Prediction Accuracy: 98.8804% MPKI: 1.51439 Average ROB Occupancy at Mispredict: 116.573
Branch types
NOT_BRANCH: 0 0%
BRANCH_DIRECT_JUMP: 0 0%
BRANCH_INDIRECT: 0 0%
BRANCH_CONDITIONAL: 0 0%
BRANCH_DIRECT_CALL: 0 0%
BRANCH_INDIRECT_CALL: 0 0%
BRANCH_RETURN: 0 0%
BRANCH_OTHER: 0 0%


CPU 1 Branch Prediction Accuracy: 98.8719% MPKI: 1.53056 Average ROB Occupancy at Mispredict: 128.366
Branch types
NOT_BRANCH: 0 0%
BRANCH_DIRECT_JUMP: 0 0%
BRANCH_INDIRECT: 0 0%
BRANCH_CONDITIONAL: 0 0%
BRANCH_DIRECT_CALL: 0 0%
BRANCH_INDIRECT_CALL: 0 0%
BRANCH_RETURN: 0 0%
BRANCH_OTHER: 0 0%


CPU 2 Branch Prediction Accuracy: 99.0729% MPKI: 1.26973 Average ROB Occupancy at Mispredict: 109.098
Branch types
NOT_BRANCH: 0 0%
BRANCH_DIRECT_JUMP: 0 0%
BRANCH_INDIRECT: 0 0%
BRANCH_CONDITIONAL: 0 0%
BRANCH_DIRECT_CALL: 0 0%
BRANCH_INDIRECT_CALL: 0 0%
BRANCH_RETURN: 0 0%
BRANCH_OTHER: 0 0%


CPU 3 Branch Prediction Accuracy: 98.9076% MPKI: 1.45062 Average ROB Occupancy at Mispredict: 128.009
Branch types
NOT_BRANCH: 0 0%
BRANCH_DIRECT_JUMP: 0 0%
BRANCH_INDIRECT: 0 0%
BRANCH_CONDITIONAL: 0 0%
BRANCH_DIRECT_CALL: 0 0%
BRANCH_INDIRECT_CALL: 0 0%
BRANCH_RETURN: 0 0%
BRANCH_OTHER: 0 0%

DRAM PAGES: 1048576
Allocated PAGES: 49612
