
*** ChampSim Multicore Out-of-Order Simulator ***

Warmup Instructions: 50000000
Simulation Instructions: 200000000
Number of CPUs: 4
LLC sets: 8192
LLC ways: 16
Off-chip DRAM Size: 4096 MB Channels: 1 Width: 64-bit Data Rate: 6400 MT/s
CPU 0 runs ./traces/ligra/ligra_CF.com-lj.ungraph.gcc_6.3.0_O3.drop_2500M.length_250M.champsimtrace.xz
.xz
CPU 1 runs ./traces/gap/bfs-10.trace.gz
.gz
CPU 2 runs ./traces/spec/437.leslie3d-271B.champsimtrace.xz
.xz
CPU 3 runs ./traces/ligra/ligra_BFS.com-lj.ungraph.gcc_6.3.0_O3.drop_3500M.length_250M.champsimtrace.xz
.xz
BTB has LRU replacement policy
ITLB has LRU replacement policy
DTLB has LRU replacement policy
STLB has LRU replacement policy
L1I has LRU replacement policy
L1D has LRU replacement policy
Initialize SRRIP state for L2C
Initialize DRRIP state for LLC
BTB has LRU replacement policy
ITLB has LRU replacement policy
DTLB has LRU replacement policy
STLB has LRU replacement policy
L1I has LRU replacement policy
L1D has LRU replacement policy
Initialize SRRIP state for L2C
Initialize DRRIP state for LLC
BTB has LRU replacement policy
ITLB has LRU replacement policy
DTLB has LRU replacement policy
STLB has LRU replacement policy
L1I has LRU replacement policy
L1D has LRU replacement policy
Initialize SRRIP state for L2C
Initialize DRRIP state for LLC
BTB has LRU replacement policy
ITLB has LRU replacement policy
DTLB has LRU replacement policy
STLB has LRU replacement policy
L1I has LRU replacement policy
L1D has LRU replacement policy
Initialize SRRIP state for L2C
Initialize DRRIP state for LLC
Heartbeat CPU 2 instructions: 10000002 cycles: 2945258 heartbeat IPC: 3.39529 cumulative IPC: 3.39529 (Simulation time: 0 hr 1 min 55 sec) 
Heartbeat CPU 1 instructions: 10000000 cycles: 2972395 heartbeat IPC: 3.36429 cumulative IPC: 3.36429 (Simulation time: 0 hr 1 min 56 sec) 
Heartbeat CPU 0 instructions: 10000002 cycles: 3333345 heartbeat IPC: 2.99999 cumulative IPC: 2.99999 (Simulation time: 0 hr 2 min 12 sec) 
Heartbeat CPU 3 instructions: 10000002 cycles: 3333348 heartbeat IPC: 2.99999 cumulative IPC: 2.99999 (Simulation time: 0 hr 2 min 12 sec) 
Heartbeat CPU 2 instructions: 20000001 cycles: 5890188 heartbeat IPC: 3.39567 cumulative IPC: 3.39548 (Simulation time: 0 hr 4 min 2 sec) 
Heartbeat CPU 1 instructions: 20000003 cycles: 5918478 heartbeat IPC: 3.39434 cumulative IPC: 3.37925 (Simulation time: 0 hr 4 min 3 sec) 
Heartbeat CPU 0 instructions: 20000000 cycles: 6666678 heartbeat IPC: 3 cumulative IPC: 2.99999 (Simulation time: 0 hr 4 min 35 sec) 
Heartbeat CPU 3 instructions: 20000001 cycles: 6666681 heartbeat IPC: 3 cumulative IPC: 2.99999 (Simulation time: 0 hr 4 min 35 sec) 
Heartbeat CPU 2 instructions: 30000002 cycles: 8835066 heartbeat IPC: 3.39573 cumulative IPC: 3.39556 (Simulation time: 0 hr 6 min 11 sec) 
Heartbeat CPU 1 instructions: 30000001 cycles: 8850575 heartbeat IPC: 3.41053 cumulative IPC: 3.38961 (Simulation time: 0 hr 6 min 12 sec) 
Heartbeat CPU 0 instructions: 30000000 cycles: 10000011 heartbeat IPC: 3 cumulative IPC: 3 (Simulation time: 0 hr 6 min 59 sec) 
Heartbeat CPU 3 instructions: 30000000 cycles: 10000014 heartbeat IPC: 3 cumulative IPC: 3 (Simulation time: 0 hr 6 min 59 sec) 
Heartbeat CPU 2 instructions: 40000002 cycles: 11780045 heartbeat IPC: 3.39561 cumulative IPC: 3.39557 (Simulation time: 0 hr 8 min 12 sec) 
Heartbeat CPU 1 instructions: 40000000 cycles: 11783064 heartbeat IPC: 3.41007 cumulative IPC: 3.3947 (Simulation time: 0 hr 8 min 12 sec) 
Heartbeat CPU 0 instructions: 40000003 cycles: 13333345 heartbeat IPC: 3 cumulative IPC: 3 (Simulation time: 0 hr 9 min 16 sec) 
Heartbeat CPU 3 instructions: 40000002 cycles: 13333348 heartbeat IPC: 3 cumulative IPC: 3 (Simulation time: 0 hr 9 min 16 sec) 
Heartbeat CPU 1 instructions: 50000001 cycles: 14714095 heartbeat IPC: 3.41177 cumulative IPC: 3.3981 (Simulation time: 0 hr 10 min 9 sec) 
Heartbeat CPU 2 instructions: 50000003 cycles: 14725094 heartbeat IPC: 3.39553 cumulative IPC: 3.39556 (Simulation time: 0 hr 10 min 10 sec) 
Heartbeat CPU 0 instructions: 50000001 cycles: 16666678 heartbeat IPC: 3 cumulative IPC: 3 (Simulation time: 0 hr 11 min 9 sec) 
Heartbeat CPU 3 instructions: 50000000 cycles: 16666680 heartbeat IPC: 3 cumulative IPC: 3 (Simulation time: 0 hr 11 min 9 sec) 

Warmup complete CPU 0 instructions: 50000008 cycles: 16666681 (Simulation time: 0 hr 11 min 9 sec) 
Warmup complete CPU 1 instructions: 54092714 cycles: 16666681 (Simulation time: 0 hr 11 min 9 sec) 
Warmup complete CPU 2 instructions: 56591246 cycles: 16666681 (Simulation time: 0 hr 11 min 9 sec) 
Warmup complete CPU 3 instructions: 50000001 cycles: 16666681 (Simulation time: 0 hr 11 min 9 sec) 

Heartbeat CPU 2 instructions: 60000001 cycles: 18867781 heartbeat IPC: 2.41389 cumulative IPC: 1.54866 (Simulation time: 0 hr 11 min 52 sec) 
Heartbeat CPU 3 instructions: 60000002 cycles: 25479090 heartbeat IPC: 1.13476 cumulative IPC: 1.13476 (Simulation time: 0 hr 13 min 55 sec) 
Heartbeat CPU 2 instructions: 70000003 cycles: 25589790 heartbeat IPC: 1.48765 cumulative IPC: 1.5027 (Simulation time: 0 hr 13 min 57 sec) 
Heartbeat CPU 0 instructions: 60000002 cycles: 28746838 heartbeat IPC: 0.827804 cumulative IPC: 0.827803 (Simulation time: 0 hr 14 min 50 sec) 
Heartbeat CPU 2 instructions: 80000002 cycles: 32157903 heartbeat IPC: 1.52251 cumulative IPC: 1.5111 (Simulation time: 0 hr 15 min 48 sec) 
Heartbeat CPU 3 instructions: 70000002 cycles: 34342552 heartbeat IPC: 1.12823 cumulative IPC: 1.13149 (Simulation time: 0 hr 16 min 28 sec) 
Heartbeat CPU 2 instructions: 90000000 cycles: 38990965 heartbeat IPC: 1.46347 cumulative IPC: 1.49652 (Simulation time: 0 hr 18 min 8 sec) 
Heartbeat CPU 0 instructions: 70000000 cycles: 40827528 heartbeat IPC: 0.827767 cumulative IPC: 0.827785 (Simulation time: 0 hr 18 min 44 sec) 
Heartbeat CPU 3 instructions: 80000000 cycles: 43199203 heartbeat IPC: 1.12909 cumulative IPC: 1.13069 (Simulation time: 0 hr 19 min 34 sec) 
Heartbeat CPU 2 instructions: 100000000 cycles: 45862669 heartbeat IPC: 1.45524 cumulative IPC: 1.48681 (Simulation time: 0 hr 20 min 26 sec) 
Heartbeat CPU 1 instructions: 60000001 cycles: 48001141 heartbeat IPC: 0.300417 cumulative IPC: 0.188524 (Simulation time: 0 hr 21 min 8 sec) 
Heartbeat CPU 3 instructions: 90000003 cycles: 52089064 heartbeat IPC: 1.12488 cumulative IPC: 1.12923 (Simulation time: 0 hr 22 min 23 sec) 
Heartbeat CPU 2 instructions: 110000000 cycles: 52725828 heartbeat IPC: 1.45705 cumulative IPC: 1.48114 (Simulation time: 0 hr 22 min 36 sec) 
Heartbeat CPU 0 instructions: 80000000 cycles: 52925648 heartbeat IPC: 0.826575 cumulative IPC: 0.827381 (Simulation time: 0 hr 22 min 40 sec) 
Heartbeat CPU 2 instructions: 120000000 cycles: 59601117 heartbeat IPC: 1.45448 cumulative IPC: 1.47687 (Simulation time: 0 hr 25 min 4 sec) 
Heartbeat CPU 3 instructions: 100000001 cycles: 60944437 heartbeat IPC: 1.12926 cumulative IPC: 1.12924 (Simulation time: 0 hr 25 min 32 sec) 
Heartbeat CPU 0 instructions: 90000003 cycles: 64998843 heartbeat IPC: 0.828281 cumulative IPC: 0.827606 (Simulation time: 0 hr 26 min 56 sec) 
Heartbeat CPU 2 instructions: 130000000 cycles: 66399927 heartbeat IPC: 1.47085 cumulative IPC: 1.47605 (Simulation time: 0 hr 27 min 26 sec) 
Heartbeat CPU 3 instructions: 110000000 cycles: 69779068 heartbeat IPC: 1.13191 cumulative IPC: 1.12968 (Simulation time: 0 hr 28 min 32 sec) 
Heartbeat CPU 2 instructions: 140000002 cycles: 73067528 heartbeat IPC: 1.49979 cumulative IPC: 1.47886 (Simulation time: 0 hr 29 min 41 sec) 
Heartbeat CPU 0 instructions: 100000000 cycles: 77059985 heartbeat IPC: 0.829109 cumulative IPC: 0.827906 (Simulation time: 0 hr 31 min 0 sec) 
Heartbeat CPU 3 instructions: 120000001 cycles: 78646737 heartbeat IPC: 1.12769 cumulative IPC: 1.1294 (Simulation time: 0 hr 31 min 34 sec) 
Heartbeat CPU 2 instructions: 150000000 cycles: 79699637 heartbeat IPC: 1.50782 cumulative IPC: 1.4819 (Simulation time: 0 hr 31 min 56 sec) 
Heartbeat CPU 2 instructions: 160000001 cycles: 86324479 heartbeat IPC: 1.50947 cumulative IPC: 1.48453 (Simulation time: 0 hr 34 min 16 sec) 
Heartbeat CPU 3 instructions: 130000002 cycles: 87523891 heartbeat IPC: 1.12649 cumulative IPC: 1.12903 (Simulation time: 0 hr 34 min 41 sec) 
Heartbeat CPU 0 instructions: 110000000 cycles: 89116151 heartbeat IPC: 0.829451 cumulative IPC: 0.828163 (Simulation time: 0 hr 35 min 15 sec) 
Heartbeat CPU 2 instructions: 170000001 cycles: 92923365 heartbeat IPC: 1.51541 cumulative IPC: 1.4872 (Simulation time: 0 hr 36 min 31 sec) 
Heartbeat CPU 1 instructions: 70000003 cycles: 94793672 heartbeat IPC: 0.213709 cumulative IPC: 0.203608 (Simulation time: 0 hr 37 min 6 sec) 
Heartbeat CPU 3 instructions: 140000000 cycles: 96390162 heartbeat IPC: 1.12787 cumulative IPC: 1.1289 (Simulation time: 0 hr 37 min 39 sec) 
Heartbeat CPU 2 instructions: 180000003 cycles: 99526081 heartbeat IPC: 1.51453 cumulative IPC: 1.48938 (Simulation time: 0 hr 38 min 44 sec) 
Heartbeat CPU 0 instructions: 120000001 cycles: 101164546 heartbeat IPC: 0.829986 cumulative IPC: 0.828423 (Simulation time: 0 hr 39 min 17 sec) 
Heartbeat CPU 3 instructions: 150000001 cycles: 105236613 heartbeat IPC: 1.1304 cumulative IPC: 1.12905 (Simulation time: 0 hr 40 min 42 sec) 
Heartbeat CPU 2 instructions: 190000000 cycles: 106136987 heartbeat IPC: 1.51265 cumulative IPC: 1.4911 (Simulation time: 0 hr 41 min 1 sec) 
Heartbeat CPU 2 instructions: 200000000 cycles: 112696543 heartbeat IPC: 1.52449 cumulative IPC: 1.49338 (Simulation time: 0 hr 43 min 16 sec) 
Heartbeat CPU 0 instructions: 130000000 cycles: 113200130 heartbeat IPC: 0.830869 cumulative IPC: 0.828728 (Simulation time: 0 hr 43 min 27 sec) 
Heartbeat CPU 3 instructions: 160000002 cycles: 114074664 heartbeat IPC: 1.13147 cumulative IPC: 1.12927 (Simulation time: 0 hr 43 min 45 sec) 
Heartbeat CPU 2 instructions: 210000001 cycles: 119259578 heartbeat IPC: 1.52369 cumulative IPC: 1.49532 (Simulation time: 0 hr 45 min 33 sec) 
Heartbeat CPU 1 instructions: 80000002 cycles: 122385617 heartbeat IPC: 0.362425 cumulative IPC: 0.245058 (Simulation time: 0 hr 46 min 38 sec) 
Heartbeat CPU 3 instructions: 170000000 cycles: 122825662 heartbeat IPC: 1.14273 cumulative IPC: 1.13038 (Simulation time: 0 hr 46 min 48 sec) 
Heartbeat CPU 0 instructions: 140000000 cycles: 125222525 heartbeat IPC: 0.831781 cumulative IPC: 0.829066 (Simulation time: 0 hr 47 min 45 sec) 
Heartbeat CPU 2 instructions: 220000000 cycles: 125779881 heartbeat IPC: 1.53367 cumulative IPC: 1.49761 (Simulation time: 0 hr 48 min 0 sec) 
Heartbeat CPU 1 instructions: 90000000 cycles: 130959241 heartbeat IPC: 1.16637 cumulative IPC: 0.31417 (Simulation time: 0 hr 50 min 11 sec) 
Heartbeat CPU 3 instructions: 180000003 cycles: 131602790 heartbeat IPC: 1.13933 cumulative IPC: 1.13106 (Simulation time: 0 hr 50 min 27 sec) 
Heartbeat CPU 2 instructions: 230000002 cycles: 132168095 heartbeat IPC: 1.56538 cumulative IPC: 1.50136 (Simulation time: 0 hr 50 min 42 sec) 
Heartbeat CPU 0 instructions: 150000000 cycles: 137258893 heartbeat IPC: 0.830815 cumulative IPC: 0.829241 (Simulation time: 0 hr 52 min 44 sec) 
Heartbeat CPU 2 instructions: 240000001 cycles: 138718913 heartbeat IPC: 1.52653 cumulative IPC: 1.50271 (Simulation time: 0 hr 53 min 16 sec) 
Heartbeat CPU 3 instructions: 190000003 cycles: 140536771 heartbeat IPC: 1.11932 cumulative IPC: 1.13022 (Simulation time: 0 hr 53 min 53 sec) 
Heartbeat CPU 1 instructions: 100000000 cycles: 144687738 heartbeat IPC: 0.728412 cumulative IPC: 0.358592 (Simulation time: 0 hr 55 min 25 sec) 
Heartbeat CPU 2 instructions: 250000001 cycles: 145167809 heartbeat IPC: 1.55065 cumulative IPC: 1.50511 (Simulation time: 0 hr 55 min 36 sec) 
Heartbeat CPU 0 instructions: 160000001 cycles: 149300483 heartbeat IPC: 0.830455 cumulative IPC: 0.829351 (Simulation time: 0 hr 57 min 10 sec) 
Heartbeat CPU 3 instructions: 200000000 cycles: 149437771 heartbeat IPC: 1.12347 cumulative IPC: 1.12976 (Simulation time: 0 hr 57 min 13 sec) 
Finished CPU 2 instructions: 200000000 cycles: 132815132 cumulative IPC: 1.50585 (Simulation time: 0 hr 57 min 14 sec) 
Heartbeat CPU 2 instructions: 260000001 cycles: 151714999 heartbeat IPC: 1.52737 cumulative IPC: 1.50619 (Simulation time: 0 hr 58 min 5 sec) 
Heartbeat CPU 3 instructions: 210000000 cycles: 158374183 heartbeat IPC: 1.11902 cumulative IPC: 1.12909 (Simulation time: 1 hr 0 min 28 sec) 
Heartbeat CPU 2 instructions: 270000002 cycles: 158528196 heartbeat IPC: 1.46774 cumulative IPC: 1.50435 (Simulation time: 1 hr 0 min 30 sec) 
Heartbeat CPU 0 instructions: 170000001 cycles: 161386543 heartbeat IPC: 0.827399 cumulative IPC: 0.829188 (Simulation time: 1 hr 1 min 29 sec) 
Heartbeat CPU 2 instructions: 280000003 cycles: 165300026 heartbeat IPC: 1.47671 cumulative IPC: 1.50309 (Simulation time: 1 hr 2 min 50 sec) 
Heartbeat CPU 3 instructions: 220000000 cycles: 167366944 heartbeat IPC: 1.11201 cumulative IPC: 1.12807 (Simulation time: 1 hr 3 min 34 sec) 
Heartbeat CPU 1 instructions: 110000000 cycles: 169857545 heartbeat IPC: 0.397301 cumulative IPC: 0.364952 (Simulation time: 1 hr 4 min 25 sec) 
Heartbeat CPU 0 instructions: 180000001 cycles: 170256722 heartbeat IPC: 1.12737 cumulative IPC: 0.846409 (Simulation time: 1 hr 4 min 34 sec) 
Heartbeat CPU 2 instructions: 290000003 cycles: 172008526 heartbeat IPC: 1.49065 cumulative IPC: 1.50255 (Simulation time: 1 hr 5 min 11 sec) 
Heartbeat CPU 3 instructions: 230000000 cycles: 176202560 heartbeat IPC: 1.13178 cumulative IPC: 1.12827 (Simulation time: 1 hr 6 min 34 sec) 
Heartbeat CPU 0 instructions: 190000003 cycles: 178683754 heartbeat IPC: 1.18666 cumulative IPC: 0.864106 (Simulation time: 1 hr 7 min 23 sec) 
Heartbeat CPU 2 instructions: 300000000 cycles: 178705221 heartbeat IPC: 1.49327 cumulative IPC: 1.50217 (Simulation time: 1 hr 7 min 23 sec) 
Heartbeat CPU 3 instructions: 240000001 cycles: 185020346 heartbeat IPC: 1.13407 cumulative IPC: 1.12858 (Simulation time: 1 hr 9 min 30 sec) 
Heartbeat CPU 2 instructions: 310000000 cycles: 185396077 heartbeat IPC: 1.49458 cumulative IPC: 1.50186 (Simulation time: 1 hr 9 min 38 sec) 
Heartbeat CPU 0 instructions: 200000003 cycles: 187105046 heartbeat IPC: 1.18747 cumulative IPC: 0.880084 (Simulation time: 1 hr 10 min 16 sec) 
Heartbeat CPU 2 instructions: 320000003 cycles: 192090256 heartbeat IPC: 1.49384 cumulative IPC: 1.50156 (Simulation time: 1 hr 11 min 49 sec) 
*** Reached end of trace for Core: 3 Repeating trace: ./traces/ligra/ligra_BFS.com-lj.ungraph.gcc_6.3.0_O3.drop_3500M.length_250M.champsimtrace.xz
Heartbeat CPU 3 instructions: 250000000 cycles: 193795579 heartbeat IPC: 1.13957 cumulative IPC: 1.12912 (Simulation time: 1 hr 12 min 18 sec) 
Finished CPU 3 instructions: 200000001 cycles: 177128899 cumulative IPC: 1.12912 (Simulation time: 1 hr 12 min 18 sec) 
Heartbeat CPU 0 instructions: 210000000 cycles: 195528809 heartbeat IPC: 1.18712 cumulative IPC: 0.894544 (Simulation time: 1 hr 12 min 52 sec) 
Heartbeat CPU 2 instructions: 330000000 cycles: 198786234 heartbeat IPC: 1.49343 cumulative IPC: 1.50126 (Simulation time: 1 hr 13 min 56 sec) 
Heartbeat CPU 3 instructions: 260000002 cycles: 202576291 heartbeat IPC: 1.13886 cumulative IPC: 1.12958 (Simulation time: 1 hr 15 min 4 sec) 
Heartbeat CPU 0 instructions: 220000000 cycles: 204038767 heartbeat IPC: 1.17509 cumulative IPC: 0.907286 (Simulation time: 1 hr 15 min 30 sec) 
Heartbeat CPU 2 instructions: 340000001 cycles: 205942141 heartbeat IPC: 1.39745 cumulative IPC: 1.49733 (Simulation time: 1 hr 16 min 6 sec) 
Heartbeat CPU 3 instructions: 270000002 cycles: 211387409 heartbeat IPC: 1.13493 cumulative IPC: 1.12982 (Simulation time: 1 hr 17 min 58 sec) 
Heartbeat CPU 0 instructions: 230000000 cycles: 212542733 heartbeat IPC: 1.17592 cumulative IPC: 0.918948 (Simulation time: 1 hr 18 min 21 sec) 
Heartbeat CPU 2 instructions: 350000000 cycles: 212617268 heartbeat IPC: 1.4981 cumulative IPC: 1.49736 (Simulation time: 1 hr 18 min 23 sec) 
Heartbeat CPU 2 instructions: 360000003 cycles: 219419393 heartbeat IPC: 1.47013 cumulative IPC: 1.49645 (Simulation time: 1 hr 20 min 45 sec) 
Heartbeat CPU 3 instructions: 280000003 cycles: 220163410 heartbeat IPC: 1.13947 cumulative IPC: 1.13024 (Simulation time: 1 hr 21 min 2 sec) 
Heartbeat CPU 1 instructions: 120000000 cycles: 221005644 heartbeat IPC: 0.195511 cumulative IPC: 0.322539 (Simulation time: 1 hr 21 min 21 sec) 
Heartbeat CPU 0 instructions: 240000003 cycles: 221129165 heartbeat IPC: 1.16463 cumulative IPC: 0.929266 (Simulation time: 1 hr 21 min 23 sec) 
Heartbeat CPU 2 instructions: 370000003 cycles: 226315728 heartbeat IPC: 1.45005 cumulative IPC: 1.49492 (Simulation time: 1 hr 23 min 19 sec) 
Heartbeat CPU 3 instructions: 290000000 cycles: 228984658 heartbeat IPC: 1.13363 cumulative IPC: 1.13038 (Simulation time: 1 hr 24 min 20 sec) 
*** Reached end of trace for Core: 0 Repeating trace: ./traces/ligra/ligra_CF.com-lj.ungraph.gcc_6.3.0_O3.drop_2500M.length_250M.champsimtrace.xz
Heartbeat CPU 0 instructions: 250000002 cycles: 229739295 heartbeat IPC: 1.16142 cumulative IPC: 0.938647 (Simulation time: 1 hr 24 min 38 sec) 
Finished CPU 0 instructions: 200000000 cycles: 213072634 cumulative IPC: 0.938647 (Simulation time: 1 hr 24 min 38 sec) 
Heartbeat CPU 2 instructions: 380000003 cycles: 233163675 heartbeat IPC: 1.46029 cumulative IPC: 1.49383 (Simulation time: 1 hr 25 min 50 sec) 
Heartbeat CPU 3 instructions: 300000000 cycles: 237852755 heartbeat IPC: 1.12764 cumulative IPC: 1.13027 (Simulation time: 1 hr 27 min 30 sec) 
Heartbeat CPU 2 instructions: 390000003 cycles: 239982112 heartbeat IPC: 1.46661 cumulative IPC: 1.49299 (Simulation time: 1 hr 28 min 12 sec) 
Heartbeat CPU 0 instructions: 260000000 cycles: 241858338 heartbeat IPC: 0.825148 cumulative IPC: 0.932539 (Simulation time: 1 hr 28 min 48 sec) 
Heartbeat CPU 3 instructions: 310000003 cycles: 246676275 heartbeat IPC: 1.13333 cumulative IPC: 1.13039 (Simulation time: 1 hr 30 min 25 sec) 
Heartbeat CPU 2 instructions: 400000001 cycles: 246887107 heartbeat IPC: 1.44823 cumulative IPC: 1.49165 (Simulation time: 1 hr 30 min 29 sec) 
Heartbeat CPU 2 instructions: 410000000 cycles: 253581213 heartbeat IPC: 1.49385 cumulative IPC: 1.49171 (Simulation time: 1 hr 32 min 33 sec) 
Heartbeat CPU 0 instructions: 270000002 cycles: 253900214 heartbeat IPC: 0.830436 cumulative IPC: 0.927356 (Simulation time: 1 hr 32 min 40 sec) 
Heartbeat CPU 3 instructions: 320000003 cycles: 255451711 heartbeat IPC: 1.13954 cumulative IPC: 1.13072 (Simulation time: 1 hr 33 min 11 sec) 
Heartbeat CPU 2 instructions: 420000002 cycles: 260228814 heartbeat IPC: 1.5043 cumulative IPC: 1.49206 (Simulation time: 1 hr 34 min 44 sec) 
Heartbeat CPU 3 instructions: 330000000 cycles: 264185973 heartbeat IPC: 1.14492 cumulative IPC: 1.13122 (Simulation time: 1 hr 35 min 56 sec) 
Heartbeat CPU 0 instructions: 280000003 cycles: 265933771 heartbeat IPC: 0.83101 cumulative IPC: 0.922705 (Simulation time: 1 hr 36 min 32 sec) 
Heartbeat CPU 2 instructions: 430000000 cycles: 266844540 heartbeat IPC: 1.51155 cumulative IPC: 1.49257 (Simulation time: 1 hr 36 min 51 sec) 
Heartbeat CPU 1 instructions: 130000002 cycles: 269737488 heartbeat IPC: 0.205205 cumulative IPC: 0.299945 (Simulation time: 1 hr 37 min 49 sec) 
Heartbeat CPU 3 instructions: 340000001 cycles: 272954160 heartbeat IPC: 1.14049 cumulative IPC: 1.13154 (Simulation time: 1 hr 38 min 50 sec) 
Heartbeat CPU 2 instructions: 440000000 cycles: 273418214 heartbeat IPC: 1.52122 cumulative IPC: 1.49331 (Simulation time: 1 hr 38 min 58 sec) 
Heartbeat CPU 0 instructions: 290000002 cycles: 277959027 heartbeat IPC: 0.831583 cumulative IPC: 0.918511 (Simulation time: 1 hr 40 min 22 sec) 
Heartbeat CPU 2 instructions: 450000002 cycles: 279971975 heartbeat IPC: 1.52584 cumulative IPC: 1.49412 (Simulation time: 1 hr 41 min 0 sec) 
Heartbeat CPU 3 instructions: 350000002 cycles: 281712963 heartbeat IPC: 1.14171 cumulative IPC: 1.13188 (Simulation time: 1 hr 41 min 32 sec) 
Heartbeat CPU 2 instructions: 460000000 cycles: 286526784 heartbeat IPC: 1.5256 cumulative IPC: 1.49488 (Simulation time: 1 hr 43 min 11 sec) 
Heartbeat CPU 0 instructions: 300000001 cycles: 289990404 heartbeat IPC: 0.83116 cumulative IPC: 0.914666 (Simulation time: 1 hr 44 min 23 sec) 
Heartbeat CPU 3 instructions: 360000003 cycles: 290479766 heartbeat IPC: 1.14067 cumulative IPC: 1.13216 (Simulation time: 1 hr 44 min 33 sec) 
Heartbeat CPU 2 instructions: 470000000 cycles: 293062440 heartbeat IPC: 1.53007 cumulative IPC: 1.49571 (Simulation time: 1 hr 45 min 24 sec) 
Heartbeat CPU 3 instructions: 370000000 cycles: 299268108 heartbeat IPC: 1.13787 cumulative IPC: 1.13234 (Simulation time: 1 hr 47 min 32 sec) 
Heartbeat CPU 2 instructions: 480000002 cycles: 299591959 heartbeat IPC: 1.53151 cumulative IPC: 1.49654 (Simulation time: 1 hr 47 min 39 sec) 
Heartbeat CPU 0 instructions: 310000002 cycles: 302042315 heartbeat IPC: 0.829744 cumulative IPC: 0.91108 (Simulation time: 1 hr 48 min 26 sec) 
Heartbeat CPU 2 instructions: 490000002 cycles: 306361162 heartbeat IPC: 1.47728 cumulative IPC: 1.49609 (Simulation time: 1 hr 49 min 54 sec) 
Heartbeat CPU 3 instructions: 380000003 cycles: 308132289 heartbeat IPC: 1.12814 cumulative IPC: 1.13221 (Simulation time: 1 hr 50 min 30 sec) 
Heartbeat CPU 2 instructions: 500000000 cycles: 313112709 heartbeat IPC: 1.48114 cumulative IPC: 1.49575 (Simulation time: 1 hr 52 min 2 sec) 
Heartbeat CPU 0 instructions: 320000001 cycles: 314093930 heartbeat IPC: 0.829764 cumulative IPC: 0.907785 (Simulation time: 1 hr 52 min 22 sec) 
Heartbeat CPU 1 instructions: 140000003 cycles: 316224841 heartbeat IPC: 0.215112 cumulative IPC: 0.28678 (Simulation time: 1 hr 53 min 6 sec) 
Heartbeat CPU 3 instructions: 390000001 cycles: 316980026 heartbeat IPC: 1.13023 cumulative IPC: 1.13215 (Simulation time: 1 hr 53 min 19 sec) 
Heartbeat CPU 2 instructions: 510000001 cycles: 319887711 heartbeat IPC: 1.47601 cumulative IPC: 1.49531 (Simulation time: 1 hr 54 min 18 sec) 
Heartbeat CPU 3 instructions: 400000002 cycles: 325807964 heartbeat IPC: 1.13277 cumulative IPC: 1.13217 (Simulation time: 1 hr 56 min 9 sec) 
Heartbeat CPU 0 instructions: 330000000 cycles: 326176722 heartbeat IPC: 0.827623 cumulative IPC: 0.904656 (Simulation time: 1 hr 56 min 16 sec) 
Heartbeat CPU 2 instructions: 520000003 cycles: 326730959 heartbeat IPC: 1.46129 cumulative IPC: 1.49456 (Simulation time: 1 hr 56 min 27 sec) 
Heartbeat CPU 2 instructions: 530000003 cycles: 333556597 heartbeat IPC: 1.46506 cumulative IPC: 1.49392 (Simulation time: 1 hr 58 min 28 sec) 
Heartbeat CPU 3 instructions: 410000003 cycles: 334657887 heartbeat IPC: 1.12995 cumulative IPC: 1.13211 (Simulation time: 1 hr 58 min 51 sec) 
Heartbeat CPU 0 instructions: 340000001 cycles: 338265059 heartbeat IPC: 0.827244 cumulative IPC: 0.901746 (Simulation time: 1 hr 59 min 51 sec) 
Heartbeat CPU 2 instructions: 540000001 cycles: 340404810 heartbeat IPC: 1.46023 cumulative IPC: 1.49321 (Simulation time: 2 hr 0 min 27 sec) 
Heartbeat CPU 3 instructions: 420000000 cycles: 343389320 heartbeat IPC: 1.14529 cumulative IPC: 1.13246 (Simulation time: 2 hr 1 min 27 sec) 
Heartbeat CPU 2 instructions: 550000000 cycles: 348196490 heartbeat IPC: 1.28342 cumulative IPC: 1.48828 (Simulation time: 2 hr 3 min 2 sec) 
Heartbeat CPU 0 instructions: 350000001 cycles: 350317093 heartbeat IPC: 0.829735 cumulative IPC: 0.899145 (Simulation time: 2 hr 3 min 43 sec) 
Heartbeat CPU 3 instructions: 430000000 cycles: 352197598 heartbeat IPC: 1.1353 cumulative IPC: 1.13253 (Simulation time: 2 hr 4 min 20 sec) 
Heartbeat CPU 2 instructions: 560000003 cycles: 355995301 heartbeat IPC: 1.28225 cumulative IPC: 1.48354 (Simulation time: 2 hr 5 min 34 sec) 
Heartbeat CPU 3 instructions: 440000000 cycles: 361030524 heartbeat IPC: 1.13213 cumulative IPC: 1.13252 (Simulation time: 2 hr 7 min 11 sec) 
Heartbeat CPU 0 instructions: 360000000 cycles: 362362862 heartbeat IPC: 0.830167 cumulative IPC: 0.896741 (Simulation time: 2 hr 7 min 38 sec) 
Heartbeat CPU 1 instructions: 150000003 cycles: 362645219 heartbeat IPC: 0.215423 cumulative IPC: 0.277206 (Simulation time: 2 hr 7 min 44 sec) 
Heartbeat CPU 2 instructions: 570000001 cycles: 363776536 heartbeat IPC: 1.28514 cumulative IPC: 1.4791 (Simulation time: 2 hr 8 min 5 sec) 
Heartbeat CPU 3 instructions: 450000000 cycles: 369857994 heartbeat IPC: 1.13283 cumulative IPC: 1.13253 (Simulation time: 2 hr 9 min 54 sec) 
Heartbeat CPU 2 instructions: 580000002 cycles: 371555300 heartbeat IPC: 1.28555 cumulative IPC: 1.47485 (Simulation time: 2 hr 10 min 25 sec) 
Heartbeat CPU 0 instructions: 370000000 cycles: 374371997 heartbeat IPC: 0.832699 cumulative IPC: 0.894591 (Simulation time: 2 hr 11 min 20 sec) 
Heartbeat CPU 3 instructions: 460000001 cycles: 378658585 heartbeat IPC: 1.13629 cumulative IPC: 1.13262 (Simulation time: 2 hr 12 min 44 sec) 
Heartbeat CPU 2 instructions: 590000003 cycles: 379295642 heartbeat IPC: 1.29193 cumulative IPC: 1.47095 (Simulation time: 2 hr 12 min 54 sec) 
Heartbeat CPU 1 instructions: 160000001 cycles: 384313144 heartbeat IPC: 0.461512 cumulative IPC: 0.288068 (Simulation time: 2 hr 14 min 42 sec) 
Heartbeat CPU 2 instructions: 600000001 cycles: 385942601 heartbeat IPC: 1.50445 cumulative IPC: 1.47155 (Simulation time: 2 hr 15 min 19 sec) 
Heartbeat CPU 0 instructions: 380000003 cycles: 386387495 heartbeat IPC: 0.832259 cumulative IPC: 0.892565 (Simulation time: 2 hr 15 min 27 sec) 
Heartbeat CPU 3 instructions: 470000003 cycles: 387561343 heartbeat IPC: 1.12325 cumulative IPC: 1.1324 (Simulation time: 2 hr 15 min 50 sec) 
Heartbeat CPU 2 instructions: 610000002 cycles: 392420799 heartbeat IPC: 1.54364 cumulative IPC: 1.47279 (Simulation time: 2 hr 17 min 24 sec) 
Heartbeat CPU 1 instructions: 170000001 cycles: 392851034 heartbeat IPC: 1.17125 cumulative IPC: 0.308113 (Simulation time: 2 hr 17 min 32 sec) 
Heartbeat CPU 3 instructions: 480000003 cycles: 396466375 heartbeat IPC: 1.12296 cumulative IPC: 1.13218 (Simulation time: 2 hr 18 min 43 sec) 
Heartbeat CPU 0 instructions: 390000000 cycles: 398487439 heartbeat IPC: 0.82645 cumulative IPC: 0.89047 (Simulation time: 2 hr 19 min 27 sec) 
Heartbeat CPU 2 instructions: 620000000 cycles: 399160849 heartbeat IPC: 1.48367 cumulative IPC: 1.47299 (Simulation time: 2 hr 19 min 44 sec) 
Heartbeat CPU 3 instructions: 490000001 cycles: 405409942 heartbeat IPC: 1.11812 cumulative IPC: 1.13185 (Simulation time: 2 hr 21 min 42 sec) 
Heartbeat CPU 2 instructions: 630000001 cycles: 406074891 heartbeat IPC: 1.44633 cumulative IPC: 1.47251 (Simulation time: 2 hr 21 min 54 sec) 
Heartbeat CPU 0 instructions: 400000003 cycles: 410624067 heartbeat IPC: 0.823952 cumulative IPC: 0.888421 (Simulation time: 2 hr 23 min 19 sec) 
Heartbeat CPU 1 instructions: 180000000 cycles: 412838870 heartbeat IPC: 0.500304 cumulative IPC: 0.317809 (Simulation time: 2 hr 24 min 3 sec) 
Heartbeat CPU 2 instructions: 640000001 cycles: 413075451 heartbeat IPC: 1.42846 cumulative IPC: 1.47174 (Simulation time: 2 hr 24 min 9 sec) 
*** Reached end of trace for Core: 3 Repeating trace: ./traces/ligra/ligra_BFS.com-lj.ungraph.gcc_6.3.0_O3.drop_3500M.length_250M.champsimtrace.xz
Heartbeat CPU 3 instructions: 500000003 cycles: 414430266 heartbeat IPC: 1.10861 cumulative IPC: 1.13133 (Simulation time: 2 hr 24 min 36 sec) 
Heartbeat CPU 2 instructions: 650000000 cycles: 420228688 heartbeat IPC: 1.39797 cumulative IPC: 1.47043 (Simulation time: 2 hr 26 min 36 sec) 
Heartbeat CPU 0 instructions: 410000001 cycles: 422718807 heartbeat IPC: 0.826806 cumulative IPC: 0.886586 (Simulation time: 2 hr 27 min 21 sec) 
Heartbeat CPU 3 instructions: 510000003 cycles: 423222091 heartbeat IPC: 1.13742 cumulative IPC: 1.13146 (Simulation time: 2 hr 27 min 29 sec) 
Heartbeat CPU 2 instructions: 660000000 cycles: 427055663 heartbeat IPC: 1.46478 cumulative IPC: 1.47033 (Simulation time: 2 hr 28 min 41 sec) 
Heartbeat CPU 3 instructions: 520000003 cycles: 432021724 heartbeat IPC: 1.13641 cumulative IPC: 1.13156 (Simulation time: 2 hr 30 min 11 sec) 
Heartbeat CPU 2 instructions: 670000003 cycles: 433709009 heartbeat IPC: 1.503 cumulative IPC: 1.47085 (Simulation time: 2 hr 30 min 42 sec) 
Heartbeat CPU 0 instructions: 420000000 cycles: 434746519 heartbeat IPC: 0.831413 cumulative IPC: 0.884998 (Simulation time: 2 hr 31 min 3 sec) 
Heartbeat CPU 2 instructions: 680000000 cycles: 440346910 heartbeat IPC: 1.5065 cumulative IPC: 1.47141 (Simulation time: 2 hr 33 min 1 sec) 
Heartbeat CPU 3 instructions: 530000000 cycles: 440724232 heartbeat IPC: 1.14909 cumulative IPC: 1.13192 (Simulation time: 2 hr 33 min 7 sec) 
Heartbeat CPU 0 instructions: 430000000 cycles: 443522354 heartbeat IPC: 1.13949 cumulative IPC: 0.890231 (Simulation time: 2 hr 34 min 7 sec) 
Heartbeat CPU 1 instructions: 190000000 cycles: 443879871 heartbeat IPC: 0.322155 cumulative IPC: 0.318125 (Simulation time: 2 hr 34 min 15 sec) 
Heartbeat CPU 2 instructions: 690000002 cycles: 447004985 heartbeat IPC: 1.50194 cumulative IPC: 1.47189 (Simulation time: 2 hr 35 min 13 sec) 
Heartbeat CPU 3 instructions: 540000000 cycles: 449433211 heartbeat IPC: 1.14824 cumulative IPC: 1.13225 (Simulation time: 2 hr 36 min 6 sec) 
Heartbeat CPU 0 instructions: 440000000 cycles: 451893403 heartbeat IPC: 1.19459 cumulative IPC: 0.896085 (Simulation time: 2 hr 36 min 51 sec) 
Heartbeat CPU 2 instructions: 700000003 cycles: 453644076 heartbeat IPC: 1.50623 cumulative IPC: 1.47241 (Simulation time: 2 hr 37 min 23 sec) 
Heartbeat CPU 3 instructions: 550000000 cycles: 458135054 heartbeat IPC: 1.14918 cumulative IPC: 1.13258 (Simulation time: 2 hr 38 min 55 sec) 
Heartbeat CPU 0 instructions: 450000000 cycles: 460259921 heartbeat IPC: 1.19524 cumulative IPC: 0.901727 (Simulation time: 2 hr 39 min 44 sec) 
Heartbeat CPU 2 instructions: 710000003 cycles: 460275676 heartbeat IPC: 1.50793 cumulative IPC: 1.47294 (Simulation time: 2 hr 39 min 44 sec) 
Heartbeat CPU 3 instructions: 560000001 cycles: 466834268 heartbeat IPC: 1.14953 cumulative IPC: 1.13291 (Simulation time: 2 hr 42 min 3 sec) 
Heartbeat CPU 2 instructions: 720000002 cycles: 466929218 heartbeat IPC: 1.50296 cumulative IPC: 1.47338 (Simulation time: 2 hr 42 min 5 sec) 
Heartbeat CPU 0 instructions: 460000000 cycles: 468631556 heartbeat IPC: 1.19451 cumulative IPC: 0.90715 (Simulation time: 2 hr 42 min 42 sec) 
Heartbeat CPU 2 instructions: 730000003 cycles: 473661610 heartbeat IPC: 1.48536 cumulative IPC: 1.47356 (Simulation time: 2 hr 44 min 34 sec) 
Heartbeat CPU 3 instructions: 570000000 cycles: 475578090 heartbeat IPC: 1.14366 cumulative IPC: 1.13312 (Simulation time: 2 hr 45 min 14 sec) 
Heartbeat CPU 0 instructions: 470000001 cycles: 477011299 heartbeat IPC: 1.19335 cumulative IPC: 0.91236 (Simulation time: 2 hr 45 min 44 sec) 
Heartbeat CPU 2 instructions: 740000003 cycles: 480367036 heartbeat IPC: 1.49133 cumulative IPC: 1.47382 (Simulation time: 2 hr 46 min 50 sec) 
Heartbeat CPU 3 instructions: 580000002 cycles: 484259472 heartbeat IPC: 1.15189 cumulative IPC: 1.13346 (Simulation time: 2 hr 48 min 7 sec) 
Heartbeat CPU 0 instructions: 480000002 cycles: 485376538 heartbeat IPC: 1.19542 cumulative IPC: 0.917412 (Simulation time: 2 hr 48 min 32 sec) 
Heartbeat CPU 1 instructions: 200000001 cycles: 485702794 heartbeat IPC: 0.239103 cumulative IPC: 0.311079 (Simulation time: 2 hr 48 min 39 sec) 
Heartbeat CPU 2 instructions: 750000002 cycles: 486996066 heartbeat IPC: 1.50852 cumulative IPC: 1.4743 (Simulation time: 2 hr 49 min 8 sec) 
Heartbeat CPU 3 instructions: 590000001 cycles: 492985084 heartbeat IPC: 1.14605 cumulative IPC: 1.1337 (Simulation time: 2 hr 51 min 15 sec) 
Heartbeat CPU 2 instructions: 760000000 cycles: 493632251 heartbeat IPC: 1.50689 cumulative IPC: 1.47476 (Simulation time: 2 hr 51 min 26 sec) 
Heartbeat CPU 0 instructions: 490000001 cycles: 493743628 heartbeat IPC: 1.19516 cumulative IPC: 0.922283 (Simulation time: 2 hr 51 min 28 sec) 
Heartbeat CPU 2 instructions: 770000000 cycles: 500286640 heartbeat IPC: 1.50277 cumulative IPC: 1.47514 (Simulation time: 2 hr 53 min 42 sec) 
Heartbeat CPU 3 instructions: 600000000 cycles: 501696806 heartbeat IPC: 1.14788 cumulative IPC: 1.13395 (Simulation time: 2 hr 54 min 11 sec) 
*** Reached end of trace for Core: 0 Repeating trace: ./traces/ligra/ligra_CF.com-lj.ungraph.gcc_6.3.0_O3.drop_2500M.length_250M.champsimtrace.xz
Heartbeat CPU 0 instructions: 500000000 cycles: 502110970 heartbeat IPC: 1.19512 cumulative IPC: 0.926986 (Simulation time: 2 hr 54 min 21 sec) 
Heartbeat CPU 2 instructions: 780000003 cycles: 506901932 heartbeat IPC: 1.51165 cumulative IPC: 1.47564 (Simulation time: 2 hr 55 min 56 sec) 
Heartbeat CPU 3 instructions: 610000000 cycles: 510409331 heartbeat IPC: 1.14777 cumulative IPC: 1.13419 (Simulation time: 2 hr 57 min 3 sec) 
Heartbeat CPU 2 instructions: 790000002 cycles: 513584885 heartbeat IPC: 1.49634 cumulative IPC: 1.47591 (Simulation time: 2 hr 57 min 59 sec) 
Heartbeat CPU 0 instructions: 510000002 cycles: 514098290 heartbeat IPC: 0.834215 cumulative IPC: 0.92475 (Simulation time: 2 hr 58 min 8 sec) 
Heartbeat CPU 3 instructions: 620000001 cycles: 519150017 heartbeat IPC: 1.14408 cumulative IPC: 1.13437 (Simulation time: 2 hr 59 min 41 sec) 
Heartbeat CPU 2 instructions: 800000002 cycles: 520600351 heartbeat IPC: 1.42542 cumulative IPC: 1.47521 (Simulation time: 3 hr 0 min 4 sec) 
Heartbeat CPU 0 instructions: 520000000 cycles: 526121308 heartbeat IPC: 0.831738 cumulative IPC: 0.922555 (Simulation time: 3 hr 1 min 28 sec) 
Heartbeat CPU 3 instructions: 630000000 cycles: 527986954 heartbeat IPC: 1.13161 cumulative IPC: 1.13432 (Simulation time: 3 hr 1 min 55 sec) 
Heartbeat CPU 1 instructions: 210000003 cycles: 530279419 heartbeat IPC: 0.224333 cumulative IPC: 0.30355 (Simulation time: 3 hr 2 min 27 sec) 
Heartbeat CPU 2 instructions: 810000000 cycles: 531642750 heartbeat IPC: 0.9056 cumulative IPC: 1.463 (Simulation time: 3 hr 2 min 46 sec) 
Heartbeat CPU 3 instructions: 640000002 cycles: 536875346 heartbeat IPC: 1.12506 cumulative IPC: 1.13416 (Simulation time: 3 hr 4 min 5 sec) 
Heartbeat CPU 0 instructions: 530000002 cycles: 538220988 heartbeat IPC: 0.826468 cumulative IPC: 0.920326 (Simulation time: 3 hr 4 min 28 sec) 
Heartbeat CPU 2 instructions: 820000002 cycles: 542970059 heartbeat IPC: 0.882822 cumulative IPC: 1.45051 (Simulation time: 3 hr 5 min 46 sec) 
Heartbeat CPU 3 instructions: 650000003 cycles: 545725863 heartbeat IPC: 1.12988 cumulative IPC: 1.13409 (Simulation time: 3 hr 6 min 32 sec) 
Heartbeat CPU 0 instructions: 540000001 cycles: 550337276 heartbeat IPC: 0.825335 cumulative IPC: 0.918169 (Simulation time: 3 hr 7 min 46 sec) 
Heartbeat CPU 2 instructions: 830000003 cycles: 554465760 heartbeat IPC: 0.869891 cumulative IPC: 1.4381 (Simulation time: 3 hr 8 min 53 sec) 
Heartbeat CPU 3 instructions: 660000000 cycles: 554669783 heartbeat IPC: 1.11808 cumulative IPC: 1.13382 (Simulation time: 3 hr 8 min 56 sec) 
Heartbeat CPU 0 instructions: 550000000 cycles: 562551370 heartbeat IPC: 0.818726 cumulative IPC: 0.915944 (Simulation time: 3 hr 10 min 57 sec) 
Heartbeat CPU 3 instructions: 670000001 cycles: 563566693 heartbeat IPC: 1.12399 cumulative IPC: 1.13366 (Simulation time: 3 hr 11 min 14 sec) 
Heartbeat CPU 2 instructions: 840000002 cycles: 566259568 heartbeat IPC: 0.847902 cumulative IPC: 1.42543 (Simulation time: 3 hr 11 min 53 sec) 
Heartbeat CPU 3 instructions: 680000002 cycles: 572597501 heartbeat IPC: 1.10732 cumulative IPC: 1.13323 (Simulation time: 3 hr 13 min 28 sec) 
Heartbeat CPU 0 instructions: 560000002 cycles: 574840225 heartbeat IPC: 0.813746 cumulative IPC: 0.913694 (Simulation time: 3 hr 13 min 55 sec) 
Heartbeat CPU 2 instructions: 850000000 cycles: 579473187 heartbeat IPC: 0.756795 cumulative IPC: 1.40974 (Simulation time: 3 hr 15 min 2 sec) 
Heartbeat CPU 3 instructions: 690000001 cycles: 581954707 heartbeat IPC: 1.06869 cumulative IPC: 1.13217 (Simulation time: 3 hr 15 min 48 sec) 
Heartbeat CPU 2 instructions: 860000002 cycles: 586511441 heartbeat IPC: 1.42081 cumulative IPC: 1.40987 (Simulation time: 3 hr 16 min 57 sec) 
Heartbeat CPU 0 instructions: 570000000 cycles: 587469682 heartbeat IPC: 0.7918 cumulative IPC: 0.910997 (Simulation time: 3 hr 17 min 14 sec) 
Heartbeat CPU 1 instructions: 220000000 cycles: 588331000 heartbeat IPC: 0.172261 cumulative IPC: 0.290218 (Simulation time: 3 hr 17 min 33 sec) 
Heartbeat CPU 3 instructions: 700000001 cycles: 591182830 heartbeat IPC: 1.08364 cumulative IPC: 1.13139 (Simulation time: 3 hr 18 min 32 sec) 
Heartbeat CPU 2 instructions: 870000002 cycles: 592355496 heartbeat IPC: 1.71114 cumulative IPC: 1.41293 (Simulation time: 3 hr 18 min 54 sec) 
Heartbeat CPU 2 instructions: 880000000 cycles: 598166410 heartbeat IPC: 1.7209 cumulative IPC: 1.41601 (Simulation time: 3 hr 20 min 54 sec) 
Heartbeat CPU 0 instructions: 580000002 cycles: 599536469 heartbeat IPC: 0.828721 cumulative IPC: 0.909294 (Simulation time: 3 hr 21 min 20 sec) 
Heartbeat CPU 3 instructions: 710000002 cycles: 600006842 heartbeat IPC: 1.13327 cumulative IPC: 1.13142 (Simulation time: 3 hr 21 min 29 sec) 
Heartbeat CPU 2 instructions: 890000000 cycles: 603953363 heartbeat IPC: 1.72803 cumulative IPC: 1.41908 (Simulation time: 3 hr 22 min 42 sec) 
Heartbeat CPU 3 instructions: 720000000 cycles: 608901193 heartbeat IPC: 1.12431 cumulative IPC: 1.13131 (Simulation time: 3 hr 24 min 16 sec) 
Heartbeat CPU 2 instructions: 900000001 cycles: 609759385 heartbeat IPC: 1.72235 cumulative IPC: 1.42205 (Simulation time: 3 hr 24 min 33 sec) 
Heartbeat CPU 0 instructions: 590000001 cycles: 611585542 heartbeat IPC: 0.829939 cumulative IPC: 0.907687 (Simulation time: 3 hr 25 min 6 sec) 
Heartbeat CPU 2 instructions: 910000000 cycles: 615526229 heartbeat IPC: 1.73405 cumulative IPC: 1.42506 (Simulation time: 3 hr 26 min 22 sec) 
Heartbeat CPU 3 instructions: 730000000 cycles: 617708501 heartbeat IPC: 1.13542 cumulative IPC: 1.13137 (Simulation time: 3 hr 27 min 3 sec) 
Heartbeat CPU 2 instructions: 920000000 cycles: 621251478 heartbeat IPC: 1.74665 cumulative IPC: 1.4281 (Simulation time: 3 hr 28 min 16 sec) 
Heartbeat CPU 0 instructions: 600000000 cycles: 623629173 heartbeat IPC: 0.830314 cumulative IPC: 0.906152 (Simulation time: 3 hr 29 min 1 sec) 
Heartbeat CPU 3 instructions: 740000002 cycles: 626481963 heartbeat IPC: 1.1398 cumulative IPC: 1.13149 (Simulation time: 3 hr 29 min 59 sec) 
Heartbeat CPU 2 instructions: 930000000 cycles: 626951315 heartbeat IPC: 1.75444 cumulative IPC: 1.43115 (Simulation time: 3 hr 30 min 8 sec) 
Heartbeat CPU 1 instructions: 230000000 cycles: 629444307 heartbeat IPC: 0.24323 cumulative IPC: 0.287065 (Simulation time: 3 hr 30 min 54 sec) 
Heartbeat CPU 2 instructions: 940000003 cycles: 633666717 heartbeat IPC: 1.48911 cumulative IPC: 1.43178 (Simulation time: 3 hr 32 min 6 sec) 
*** Reached end of trace for Core: 3 Repeating trace: ./traces/ligra/ligra_BFS.com-lj.ungraph.gcc_6.3.0_O3.drop_3500M.length_250M.champsimtrace.xz
Heartbeat CPU 3 instructions: 750000000 cycles: 635255574 heartbeat IPC: 1.13978 cumulative IPC: 1.13161 (Simulation time: 3 hr 32 min 38 sec) 
Heartbeat CPU 0 instructions: 610000002 cycles: 635715964 heartbeat IPC: 0.82735 cumulative IPC: 0.904613 (Simulation time: 3 hr 32 min 47 sec) 
Heartbeat CPU 2 instructions: 950000003 cycles: 640083765 heartbeat IPC: 1.55835 cumulative IPC: 1.43308 (Simulation time: 3 hr 34 min 7 sec) 
Heartbeat CPU 3 instructions: 760000003 cycles: 644021362 heartbeat IPC: 1.1408 cumulative IPC: 1.13174 (Simulation time: 3 hr 35 min 14 sec) 
Heartbeat CPU 2 instructions: 960000000 cycles: 646563245 heartbeat IPC: 1.54333 cumulative IPC: 1.43422 (Simulation time: 3 hr 36 min 10 sec) 
Heartbeat CPU 0 instructions: 620000003 cycles: 647774958 heartbeat IPC: 0.829257 cumulative IPC: 0.903173 (Simulation time: 3 hr 36 min 39 sec) 
Heartbeat CPU 1 instructions: 240000002 cycles: 647860448 heartbeat IPC: 0.543002 cumulative IPC: 0.294533 (Simulation time: 3 hr 36 min 41 sec) 
Heartbeat CPU 3 instructions: 770000000 cycles: 652821989 heartbeat IPC: 1.13628 cumulative IPC: 1.1318 (Simulation time: 3 hr 38 min 30 sec) 
Heartbeat CPU 2 instructions: 970000001 cycles: 653307176 heartbeat IPC: 1.48281 cumulative IPC: 1.43473 (Simulation time: 3 hr 38 min 41 sec) 
Heartbeat CPU 1 instructions: 250000001 cycles: 658574892 heartbeat IPC: 0.933319 cumulative IPC: 0.305195 (Simulation time: 3 hr 40 min 32 sec) 
Heartbeat CPU 0 instructions: 630000002 cycles: 659924078 heartbeat IPC: 0.823105 cumulative IPC: 0.901661 (Simulation time: 3 hr 41 min 0 sec) 
Heartbeat CPU 2 instructions: 980000000 cycles: 660221558 heartbeat IPC: 1.44626 cumulative IPC: 1.43486 (Simulation time: 3 hr 41 min 6 sec) 
Heartbeat CPU 3 instructions: 780000003 cycles: 661788518 heartbeat IPC: 1.11526 cumulative IPC: 1.13157 (Simulation time: 3 hr 41 min 38 sec) 
Finished CPU 1 instructions: 200000000 cycles: 649738212 cumulative IPC: 0.307816 (Simulation time: 3 hr 43 min 8 sec) 

ChampSim completed all CPUs

Total Simulation Statistics (not including warmup)

CPU 0 cumulative IPC: 0.900914 instructions: 585358152 cycles: 649738212
ITLB TOTAL     ACCESS:   91517541  HIT:   91517534  MISS:          7  HIT %:        100  MISS %: 7.64881e-06   MPKI: 1.19585e-05
ITLB LOAD      ACCESS:          0  HIT:          0  MISS:          0  HIT %:       -nan  MISS %:       -nan   MPKI: 0
ITLB RFO       ACCESS:          0  HIT:          0  MISS:          0  HIT %:       -nan  MISS %:       -nan   MPKI: 0
ITLB PREFETCH  ACCESS:          0  HIT:          0  MISS:          0  HIT %:       -nan  MISS %:       -nan   MPKI: 0
ITLB WRITEBACK ACCESS:          0  HIT:          0  MISS:          0  HIT %:       -nan  MISS %:       -nan   MPKI: 0
DTLB TOTAL     ACCESS:   73840436  HIT:   73818485  MISS:      21951  HIT %:    99.9703  MISS %:  0.0297276   MPKI: 0.0375001
DTLB LOAD      ACCESS:          0  HIT:          0  MISS:          0  HIT %:       -nan  MISS %:       -nan   MPKI: 0
DTLB RFO       ACCESS:          0  HIT:          0  MISS:          0  HIT %:       -nan  MISS %:       -nan   MPKI: 0
DTLB PREFETCH  ACCESS:          0  HIT:          0  MISS:          0  HIT %:       -nan  MISS %:       -nan   MPKI: 0
DTLB WRITEBACK ACCESS:          0  HIT:          0  MISS:          0  HIT %:       -nan  MISS %:       -nan   MPKI: 0
STLB TOTAL     ACCESS:    1108918  HIT:    1086960  MISS:      21958  HIT %:    98.0199  MISS %:    1.98013   MPKI: 0.0375121
STLB LOAD      ACCESS:          0  HIT:          0  MISS:          0  HIT %:       -nan  MISS %:       -nan   MPKI: 0
STLB RFO       ACCESS:          0  HIT:          0  MISS:          0  HIT %:       -nan  MISS %:       -nan   MPKI: 0
STLB PREFETCH  ACCESS:          0  HIT:          0  MISS:          0  HIT %:       -nan  MISS %:       -nan   MPKI: 0
STLB WRITEBACK ACCESS:          0  HIT:          0  MISS:          0  HIT %:       -nan  MISS %:       -nan   MPKI: 0
L1D TOTAL     ACCESS:   68935028  HIT:   67531812  MISS:    1403216  HIT %:    97.9644  MISS %:    2.03556   MPKI: 2.39719
L1D LOAD      ACCESS:   40916116  HIT:   40879637  MISS:      36479  HIT %:    99.9108  MISS %:  0.0891556   MPKI: 0.0623191
L1D RFO       ACCESS:   26933296  HIT:   26652168  MISS:     281128  HIT %:    98.9562  MISS %:    1.04379   MPKI: 0.480267
L1D PREFETCH  ACCESS:    1085616  HIT:          7  MISS:    1085609  HIT %: 0.000644795  MISS %:    99.9994   MPKI: 1.85461
L1D WRITEBACK ACCESS:          0  HIT:          0  MISS:          0  HIT %:       -nan  MISS %:       -nan   MPKI: 0
L1I TOTAL     ACCESS:   91517561  HIT:   91517516  MISS:         45  HIT %:        100  MISS %: 4.91709e-05   MPKI: 7.6876e-05
L1I LOAD      ACCESS:   91517561  HIT:   91517516  MISS:         45  HIT %:        100  MISS %: 4.91709e-05   MPKI: 7.6876e-05
L1I RFO       ACCESS:          0  HIT:          0  MISS:          0  HIT %:       -nan  MISS %:       -nan   MPKI: 0
L1I PREFETCH  ACCESS:          0  HIT:          0  MISS:          0  HIT %:       -nan  MISS %:       -nan   MPKI: 0
L1I WRITEBACK ACCESS:          0  HIT:          0  MISS:          0  HIT %:       -nan  MISS %:       -nan   MPKI: 0
L2C TOTAL     ACCESS:    2547225  HIT:    1022100  MISS:    1525125  HIT %:     40.126  MISS %:     59.874   MPKI: 2.60546
L2C LOAD      ACCESS:      17614  HIT:          0  MISS:      17614  HIT %:          0  MISS %:        100   MPKI: 0.030091
L2C RFO       ACCESS:     281128  HIT:          0  MISS:     281128  HIT %:          0  MISS %:        100   MPKI: 0.480267
L2C PREFETCH  ACCESS:    1104519  HIT:          0  MISS:    1104519  HIT %:          0  MISS %:        100   MPKI: 1.88691
L2C WRITEBACK ACCESS:    1122006  HIT:    1002931  MISS:     119075  HIT %:    89.3873  MISS %:    10.6127   MPKI: 0.203422
PSCL5 TOTAL     ACCESS:      21958  HIT:      21958  MISS:          0  HIT %:        100  MISS %:          0   MPKI: 0
PSCL5 LOAD      ACCESS:          0  HIT:          0  MISS:          0  HIT %:       -nan  MISS %:       -nan   MPKI: 0
PSCL5 RFO       ACCESS:          0  HIT:          0  MISS:          0  HIT %:       -nan  MISS %:       -nan   MPKI: 0
PSCL5 PREFETCH  ACCESS:          0  HIT:          0  MISS:          0  HIT %:       -nan  MISS %:       -nan   MPKI: 0
PSCL5 WRITEBACK ACCESS:          0  HIT:          0  MISS:          0  HIT %:       -nan  MISS %:       -nan   MPKI: 0
PSCL4 TOTAL     ACCESS:      21958  HIT:      21957  MISS:          1  HIT %:    99.9954  MISS %: 0.00455415   MPKI: 1.70836e-06
PSCL4 LOAD      ACCESS:          0  HIT:          0  MISS:          0  HIT %:       -nan  MISS %:       -nan   MPKI: 0
PSCL4 RFO       ACCESS:          0  HIT:          0  MISS:          0  HIT %:       -nan  MISS %:       -nan   MPKI: 0
PSCL4 PREFETCH  ACCESS:          0  HIT:          0  MISS:          0  HIT %:       -nan  MISS %:       -nan   MPKI: 0
PSCL4 WRITEBACK ACCESS:          0  HIT:          0  MISS:          0  HIT %:       -nan  MISS %:       -nan   MPKI: 0
PSCL3 TOTAL     ACCESS:      21958  HIT:      21956  MISS:          2  HIT %:    99.9909  MISS %:  0.0091083   MPKI: 3.41671e-06
PSCL3 LOAD      ACCESS:          0  HIT:          0  MISS:          0  HIT %:       -nan  MISS %:       -nan   MPKI: 0
PSCL3 RFO       ACCESS:          0  HIT:          0  MISS:          0  HIT %:       -nan  MISS %:       -nan   MPKI: 0
PSCL3 PREFETCH  ACCESS:          0  HIT:          0  MISS:          0  HIT %:       -nan  MISS %:       -nan   MPKI: 0
PSCL3 WRITEBACK ACCESS:          0  HIT:          0  MISS:          0  HIT %:       -nan  MISS %:       -nan   MPKI: 0
PSCL2 TOTAL     ACCESS:      21958  HIT:      21934  MISS:         24  HIT %:    99.8907  MISS %:     0.1093   MPKI: 4.10005e-05
PSCL2 LOAD      ACCESS:          0  HIT:          0  MISS:          0  HIT %:       -nan  MISS %:       -nan   MPKI: 0
PSCL2 RFO       ACCESS:          0  HIT:          0  MISS:          0  HIT %:       -nan  MISS %:       -nan   MPKI: 0
PSCL2 PREFETCH  ACCESS:          0  HIT:          0  MISS:          0  HIT %:       -nan  MISS %:       -nan   MPKI: 0
PSCL2 WRITEBACK ACCESS:          0  HIT:          0  MISS:          0  HIT %:       -nan  MISS %:       -nan   MPKI: 0
=== CPU 0 L1D Prefetcher Statistics ===
[MLOP] History of tracked zone:
IIIIIIIIIIIIIIIIIIIIIIIIIIIIIIIIIIIIIIIIIIIIIIIIIIIIIIIIIIIIIIII
A11IIIIIIIIIIIIIIIIIIIIIIIIIIIIIIIIIIIIIIIIIIIIIIIIIIIIIIIIIIIII
AA11IIIIIIIIIIIIIIIIIIIIIIIIIIIIIIIIIIIIIIIIIIIIIIIIIIIIIIIIIIII
AAA11IIIIIIIIIIIIIIIIIIIIIIIIIIIIIIIIIIIIIIIIIIIIIIIIIIIIIIIIIII
AAAA11IIIIIIIIIIIIIIIIIIIIIIIIIIIIIIIIIIIIIIIIIIIIIIIIIIIIIIIIII
AAAAA11IIIIIIIIIIIIIIIIIIIIIIIIIIIIIIIIIIIIIIIIIIIIIIIIIIIIIIIII
AAAAAA11IIIIIIIIIIIIIIIIIIIIIIIIIIIIIIIIIIIIIIIIIIIIIIIIIIIIIIII
AAAAAAA11IIIIIIIIIIIIIIIIIIIIIIIIIIIIIIIIIIIIIIIIIIIIIIIIIIIIIII
AAAAAAAA11IIIIIIIIIIIIIIIIIIIIIIIIIIIIIIIIIIIIIIIIIIIIIIIIIIIIII
AAAAAAAAA11IIIIIIIIIIIIIIIIIIIIIIIIIIIIIIIIIIIIIIIIIIIIIIIIIIIII
AAAAAAAAAA11IIIIIIIIIIIIIIIIIIIIIIIIIIIIIIIIIIIIIIIIIIIIIIIIIIII
AAAAAAAAAAA11IIIIIIIIIIIIIIIIIIIIIIIIIIIIIIIIIIIIIIIIIIIIIIIIIII
AAAAAAAAAAAA11IIIIIIIIIIIIIIIIIIIIIIIIIIIIIIIIIIIIIIIIIIIIIIIIII
AAAAAAAAAAAAA11IIIIIIIIIIIIIIIIIIIIIIIIIIIIIIIIIIIIIIIIIIIIIIIII
AAAAAAAAAAAAAA11IIIIIIIIIIIIIIIIIIIIIIIIIIIIIIIIIIIIIIIIIIIIIIII
AAAAAAAAAAAAAAA11IIIIIIIIIIIIIIIIIIIIIIIIIIIIIIIIIIIIIIIIIIIIIII
AAAAAAAAAAAAAAAA11IIIIIIIIIIIIIIIIIIIIIIIIIIIIIIIIIIIIIIIIIIIIII
AAAAAAAAAAAAAAAAA11IIIIIIIIIIIIIIIIIIIIIIIIIIIIIIIIIIIIIIIIIIIII
AAAAAAAAAAAAAAAAAA11IIIIIIIIIIIIIIIIIIIIIIIIIIIIIIIIIIIIIIIIIIII
AAAAAAAAAAAAAAAAAAA11IIIIIIIIIIIIIIIIIIIIIIIIIIIIIIIIIIIIIIIIIII
AAAAAAAAAAAAAAAAAAAA11IIIIIIIIIIIIIIIIIIIIIIIIIIIIIIIIIIIIIIIIII
AAAAAAAAAAAAAAAAAAAAA11IIIIIIIIIIIIIIIIIIIIIIIIIIIIIIIIIIIIIIIII
AAAAAAAAAAAAAAAAAAAAAA11IIIIIIIIIIIIIIIIIIIIIIIIIIIIIIIIIIIIIIII
AAAAAAAAAAAAAAAAAAAAAAA11IIIIIIIIIIIIIIIIIIIIIIIIIIIIIIIIIIIIIII
AAAAAAAAAAAAAAAAAAAAAAAA11IIIIIIIIIIIIIIIIIIIIIIIIIIIIIIIIIIIIII
AAAAAAAAAAAAAAAAAAAAAAAAA11IIIIIIIIIIIIIIIIIIIIIIIIIIIIIIIIIIIII
AAAAAAAAAAAAAAAAAAAAAAAAAA11IIIIIIIIIIIIIIIIIIIIIIIIIIIIIIIIIIII
AAAAAAAAAAAAAAAAAAAAAAAAAAA11IIIIIIIIIIIIIIIIIIIIIIIIIIIIIIIIIII
AAAAAAAAAAAAAAAAAAAAAAAAAAAA11IIIIIIIIIIIIIIIIIIIIIIIIIIIIIIIIII
AAAAAAAAAAAAAAAAAAAAAAAAAAAAA11IIIIIIIIIIIIIIIIIIIIIIIIIIIIIIIII
AAAAAAAAAAAAAAAAAAAAAAAAAAAAAA11IIIIIIIIIIIIIIIIIIIIIIIIIIIIIIII
AAAAAAAAAAAAAAAAAAAAAAAAAAAAAAA11IIIIIIIIIIIIIIIIIIIIIIIIIIIIIII
AAAAAAAAAAAAAAAAAAAAAAAAAAAAAAAA11IIIIIIIIIIIIIIIIIIIIIIIIIIIIII
AAAAAAAAAAAAAAAAAAAAAAAAAAAAAAAAA11IIIIIIIIIIIIIIIIIIIIIIIIIIIII
AAAAAAAAAAAAAAAAAAAAAAAAAAAAAAAAAA11IIIIIIIIIIIIIIIIIIIIIIIIIIII
AAAAAAAAAAAAAAAAAAAAAAAAAAAAAAAAAAA11IIIIIIIIIIIIIIIIIIIIIIIIIII
AAAAAAAAAAAAAAAAAAAAAAAAAAAAAAAAAAAA11IIIIIIIIIIIIIIIIIIIIIIIIII
AAAAAAAAAAAAAAAAAAAAAAAAAAAAAAAAAAAAA11IIIIIIIIIIIIIIIIIIIIIIIII
AAAAAAAAAAAAAAAAAAAAAAAAAAAAAAAAAAAAAA11IIIIIIIIIIIIIIIIIIIIIIII
AAAAAAAAAAAAAAAAAAAAAAAAAAAAAAAAAAAAAAA11IIIIIIIIIIIIIIIIIIIIIII
AAAAAAAAAAAAAAAAAAAAAAAAAAAAAAAAAAAAAAAA11IIIIIIIIIIIIIIIIIIIIII
AAAAAAAAAAAAAAAAAAAAAAAAAAAAAAAAAAAAAAAAA11IIIIIIIIIIIIIIIIIIIII
AAAAAAAAAAAAAAAAAAAAAAAAAAAAAAAAAAAAAAAAAA11IIIIIIIIIIIIIIIIIIII
AAAAAAAAAAAAAAAAAAAAAAAAAAAAAAAAAAAAAAAAAAA11IIIIIIIIIIIIIIIIIII
AAAAAAAAAAAAAAAAAAAAAAAAAAAAAAAAAAAAAAAAAAAA11IIIIIIIIIIIIIIIIII
AAAAAAAAAAAAAAAAAAAAAAAAAAAAAAAAAAAAAAAAAAAAA11IIIIIIIIIIIIIIIII
AAAAAAAAAAAAAAAAAAAAAAAAAAAAAAAAAAAAAAAAAAAAAA11IIIIIIIIIIIIIIII
AAAAAAAAAAAAAAAAAAAAAAAAAAAAAAAAAAAAAAAAAAAAAAA11IIIIIIIIIIIIIII
AAAAAAAAAAAAAAAAAAAAAAAAAAAAAAAAAAAAAAAAAAAAAAAA11IIIIIIIIIIIIII
AAAAAAAAAAAAAAAAAAAAAAAAAAAAAAAAAAAAAAAAAAAAAAAAA11IIIIIIIIIIIII
AAAAAAAAAAAAAAAAAAAAAAAAAAAAAAAAAAAAAAAAAAAAAAAAAA11IIIIIIIIIIII
AAAAAAAAAAAAAAAAAAAAAAAAAAAAAAAAAAAAAAAAAAAAAAAAAAA11IIIIIIIIIII
AAAAAAAAAAAAAAAAAAAAAAAAAAAAAAAAAAAAAAAAAAAAAAAAAAAA11IIIIIIIIII
AAAAAAAAAAAAAAAAAAAAAAAAAAAAAAAAAAAAAAAAAAAAAAAAAAAAA11IIIIIIIII
AAAAAAAAAAAAAAAAAAAAAAAAAAAAAAAAAAAAAAAAAAAAAAAAAAAAAA11IIIIIIII
AAAAAAAAAAAAAAAAAAAAAAAAAAAAAAAAAAAAAAAAAAAAAAAAAAAAAAA11IIIIIII
AAAAAAAAAAAAAAAAAAAAAAAAAAAAAAAAAAAAAAAAAAAAAAAAAAAAAAAA11IIIIII
AAAAAAAAAAAAAAAAAAAAAAAAAAAAAAAAAAAAAAAAAAAAAAAAAAAAAAAAA11IIIII
AAAAAAAAAAAAAAAAAAAAAAAAAAAAAAAAAAAAAAAAAAAAAAAAAAAAAAAAAA11IIII
AAAAAAAAAAAAAAAAAAAAAAAAAAAAAAAAAAAAAAAAAAAAAAAAAAAAAAAAAAA11III
AAAAAAAAAAAAAAAAAAAAAAAAAAAAAAAAAAAAAAAAAAAAAAAAAAAAAAAAAAAA11II
AAAAAAAAAAAAAAAAAAAAAAAAAAAAAAAAAAAAAAAAAAAAAAAAAAAAAAAAAAAAA11I
AAAAAAAAAAAAAAAAAAAAAAAAAAAAAAAAAAAAAAAAAAAAAAAAAAAAAAAAAAAAAA11
AAAAAAAAAAAAAAAAAAAAAAAAAAAAAAAAAAAAAAAAAAAAAAAAAAAAAAAAAAAAAAA1
AAAAAAAAAAAAAAAAAAAAAAAAAAAAAAAAAAAAAAAAAAAAAAAAAAAAAAAAAAAAAAAA
A11IIIIIIIIIIIIIIIIIIIIIIIIIIIIIIIIIIIIIIIIIIIIIIIIIIIIIIIIIIIII
AA11IIIIIIIIIIIIIIIIIIIIIIIIIIIIIIIIIIIIIIIIIIIIIIIIIIIIIIIIIIII
AAA11IIIIIIIIIIIIIIIIIIIIIIIIIIIIIIIIIIIIIIIIIIIIIIIIIIIIIIIIIII
AAAA11IIIIIIIIIIIIIIIIIIIIIIIIIIIIIIIIIIIIIIIIIIIIIIIIIIIIIIIIII
AAAAA11IIIIIIIIIIIIIIIIIIIIIIIIIIIIIIIIIIIIIIIIIIIIIIIIIIIIIIIII
AAAAAA11IIIIIIIIIIIIIIIIIIIIIIIIIIIIIIIIIIIIIIIIIIIIIIIIIIIIIIII
AAAAAAA11IIIIIIIIIIIIIIIIIIIIIIIIIIIIIIIIIIIIIIIIIIIIIIIIIIIIIII
AAAAAAAA11IIIIIIIIIIIIIIIIIIIIIIIIIIIIIIIIIIIIIIIIIIIIIIIIIIIIII
AAAAAAAAA11IIIIIIIIIIIIIIIIIIIIIIIIIIIIIIIIIIIIIIIIIIIIIIIIIIIII
AAAAAAAAAA11IIIIIIIIIIIIIIIIIIIIIIIIIIIIIIIIIIIIIIIIIIIIIIIIIIII
AAAAAAAAAAA11IIIIIIIIIIIIIIIIIIIIIIIIIIIIIIIIIIIIIIIIIIIIIIIIIII
AAAAAAAAAAAA11IIIIIIIIIIIIIIIIIIIIIIIIIIIIIIIIIIIIIIIIIIIIIIIIII
AAAAAAAAAAAAA11IIIIIIIIIIIIIIIIIIIIIIIIIIIIIIIIIIIIIIIIIIIIIIIII
AAAAAAAAAAAAAA11IIIIIIIIIIIIIIIIIIIIIIIIIIIIIIIIIIIIIIIIIIIIIIII
AAAAAAAAAAAAAAA11IIIIIIIIIIIIIIIIIIIIIIIIIIIIIIIIIIIIIIIIIIIIIII
AAAAAAAAAAAAAAAA11IIIIIIIIIIIIIIIIIIIIIIIIIIIIIIIIIIIIIIIIIIIIII
AAAAAAAAAAAAAAAAA11IIIIIIIIIIIIIIIIIIIIIIIIIIIIIIIIIIIIIIIIIIIII
AAAAAAAAAAAAAAAAAA11IIIIIIIIIIIIIIIIIIIIIIIIIIIIIIIIIIIIIIIIIIII
AAAAAAAAAAAAAAAAAAA11IIIIIIIIIIIIIIIIIIIIIIIIIIIIIIIIIIIIIIIIIII
AAAAAAAAAAAAAAAAAAAA11IIIIIIIIIIIIIIIIIIIIIIIIIIIIIIIIIIIIIIIIII
AAAAAAAAAAAAAAAAAAAAA11IIIIIIIIIIIIIIIIIIIIIIIIIIIIIIIIIIIIIIIII
AAAAAAAAAAAAAAAAAAAAAA11IIIIIIIIIIIIIIIIIIIIIIIIIIIIIIIIIIIIIIII
AAAAAAAAAAAAAAAAAAAAAAA11IIIIIIIIIIIIIIIIIIIIIIIIIIIIIIIIIIIIIII
AAAAAAAAAAAAAAAAAAAAAAAA11IIIIIIIIIIIIIIIIIIIIIIIIIIIIIIIIIIIIII
AAAAAAAAAAAAAAAAAAAAAAAAA11IIIIIIIIIIIIIIIIIIIIIIIIIIIIIIIIIIIII
AAAAAAAAAAAAAAAAAAAAAAAAAA11IIIIIIIIIIIIIIIIIIIIIIIIIIIIIIIIIIII
AAAAAAAAAAAAAAAAAAAAAAAAAAA11IIIIIIIIIIIIIIIIIIIIIIIIIIIIIIIIIII
AAAAAAAAAAAAAAAAAAAAAAAAAAAA11IIIIIIIIIIIIIIIIIIIIIIIIIIIIIIIIII
AAAAAAAAAAAAAAAAAAAAAAAAAAAAA11IIIIIIIIIIIIIIIIIIIIIIIIIIIIIIIII
AAAAAAAAAAAAAAAAAAAAAAAAAAAAAA11IIIIIIIIIIIIIIIIIIIIIIIIIIIIIIII
AAAAAAAAAAAAAAAAAAAAAAAAAAAAAAA11IIIIIIIIIIIIIIIIIIIIIIIIIIIIIII
AAAAAAAAAAAAAAAAAAAAAAAAAAAAAAAA11IIIIIIIIIIIIIIIIIIIIIIIIIIIIII
AAAAAAAAAAAAAAAAAAAAAAAAAAAAAAAAA11IIIIIIIIIIIIIIIIIIIIIIIIIIIII
AAAAAAAAAAAAAAAAAAAAAAAAAAAAAAAAAA11IIIIIIIIIIIIIIIIIIIIIIIIIIII
AAAAAAAAAAAAAAAAAAAAAAAAAAAAAAAAAAA11IIIIIIIIIIIIIIIIIIIIIIIIIII
AAAAAAAAAAAAAAAAAAAAAAAAAAAAAAAAAAAA11IIIIIIIIIIIIIIIIIIIIIIIIII
AAAAAAAAAAAAAAAAAAAAAAAAAAAAAAAAAAAAA11IIIIIIIIIIIIIIIIIIIIIIIII
AAAAAAAAAAAAAAAAAAAAAAAAAAAAAAAAAAAAAA11IIIIIIIIIIIIIIIIIIIIIIII
AAAAAAAAAAAAAAAAAAAAAAAAAAAAAAAAAAAAAAA11IIIIIIIIIIIIIIIIIIIIIII
AAAAAAAAAAAAAAAAAAAAAAAAAAAAAAAAAAAAAAAA11IIIIIIIIIIIIIIIIIIIIII
AAAAAAAAAAAAAAAAAAAAAAAAAAAAAAAAAAAAAAAAA11IIIIIIIIIIIIIIIIIIIII
AAAAAAAAAAAAAAAAAAAAAAAAAAAAAAAAAAAAAAAAAA11IIIIIIIIIIIIIIIIIIII
AAAAAAAAAAAAAAAAAAAAAAAAAAAAAAAAAAAAAAAAAAA11IIIIIIIIIIIIIIIIIII
AAAAAAAAAAAAAAAAAAAAAAAAAAAAAAAAAAAAAAAAAAAA11IIIIIIIIIIIIIIIIII
AAAAAAAAAAAAAAAAAAAAAAAAAAAAAAAAAAAAAAAAAAAAA11IIIIIIIIIIIIIIIII
AAAAAAAAAAAAAAAAAAAAAAAAAAAAAAAAAAAAAAAAAAAAAA11IIIIIIIIIIIIIIII
AAAAAAAAAAAAAAAAAAAAAAAAAAAAAAAAAAAAAAAAAAAAAAA11IIIIIIIIIIIIIII
AAAAAAAAAAAAAAAAAAAAAAAAAAAAAAAAAAAAAAAAAAAAAAAA11IIIIIIIIIIIIII
AAAAAAAAAAAAAAAAAAAAAAAAAAAAAAAAAAAAAAAAAAAAAAAAA11IIIIIIIIIIIII
AAAAAAAAAAAAAAAAAAAAAAAAAAAAAAAAAAAAAAAAAAAAAAAAAA11IIIIIIIIIIII
AAAAAAAAAAAAAAAAAAAAAAAAAAAAAAAAAAAAAAAAAAAAAAAAAAA11IIIIIIIIIII
AAAAAAAAAAAAAAAAAAAAAAAAAAAAAAAAAAAAAAAAAAAAAAAAAAAA11IIIIIIIIII
AAAAAAAAAAAAAAAAAAAAAAAAAAAAAAAAAAAAAAAAAAAAAAAAAAAAA11IIIIIIIII
AAAAAAAAAAAAAAAAAAAAAAAAAAAAAAAAAAAAAAAAAAAAAAAAAAAAAA11IIIIIIII
AAAAAAAAAAAAAAAAAAAAAAAAAAAAAAAAAAAAAAAAAAAAAAAAAAAAAAA11IIIIIII
AAAAAAAAAAAAAAAAAAAAAAAAAAAAAAAAAAAAAAAAAAAAAAAAAAAAAAAA11IIIIII
AAAAAAAAAAAAAAAAAAAAAAAAAAAAAAAAAAAAAAAAAAAAAAAAAAAAAAAAA11IIIII
AAAAAAAAAAAAAAAAAAAAAAAAAAAAAAAAAAAAAAAAAAAAAAAAAAAAAAAAAA11IIII
AAAAAAAAAAAAAAAAAAAAAAAAAAAAAAAAAAAAAAAAAAAAAAAAAAAAAAAAAAA11III
AAAAAAAAAAAAAAAAAAAAAAAAAAAAAAAAAAAAAAAAAAAAAAAAAAAAAAAAAAAA11II
AAAAAAAAAAAAAAAAAAAAAAAAAAAAAAAAAAAAAAAAAAAAAAAAAAAAAAAAAAAAA11I
AAAAAAAAAAAAAAAAAAAAAAAAAAAAAAAAAAAAAAAAAAAAAAAAAAAAAAAAAAAAAA11
AAAAAAAAAAAAAAAAAAAAAAAAAAAAAAAAAAAAAAAAAAAAAAAAAAAAAAAAAAAAAAA1
AAAAAAAAAAAAAAAAAAAAAAAAAAAAAAAAAAAAAAAAAAAAAAAAAAAAAAAAAAAAAAAA
A11IIIIIIIIIIIIIIIIIIIIIIIIIIIIIIIIIIIIIIIIIIIIIIIIIIIIIIIIIIIII
AA11IIIIIIIIIIIIIIIIIIIIIIIIIIIIIIIIIIIIIIIIIIIIIIIIIIIIIIIIIIII
AAA11IIIIIIIIIIIIIIIIIIIIIIIIIIIIIIIIIIIIIIIIIIIIIIIIIIIIIIIIIII
AAAA11IIIIIIIIIIIIIIIIIIIIIIIIIIIIIIIIIIIIIIIIIIIIIIIIIIIIIIIIII
AAAAA11IIIIIIIIIIIIIIIIIIIIIIIIIIIIIIIIIIIIIIIIIIIIIIIIIIIIIIIII
AAAAAA11IIIIIIIIIIIIIIIIIIIIIIIIIIIIIIIIIIIIIIIIIIIIIIIIIIIIIIII
AAAAAAA11IIIIIIIIIIIIIIIIIIIIIIIIIIIIIIIIIIIIIIIIIIIIIIIIIIIIIII
AAAAAAAA11IIIIIIIIIIIIIIIIIIIIIIIIIIIIIIIIIIIIIIIIIIIIIIIIIIIIII
AAAAAAAAA11IIIIIIIIIIIIIIIIIIIIIIIIIIIIIIIIIIIIIIIIIIIIIIIIIIIII
AAAAAAAAAA11IIIIIIIIIIIIIIIIIIIIIIIIIIIIIIIIIIIIIIIIIIIIIIIIIIII
AAAAAAAAAAA11IIIIIIIIIIIIIIIIIIIIIIIIIIIIIIIIIIIIIIIIIIIIIIIIIII
AAAAAAAAAAAA11IIIIIIIIIIIIIIIIIIIIIIIIIIIIIIIIIIIIIIIIIIIIIIIIII
AAAAAAAAAAAAA11IIIIIIIIIIIIIIIIIIIIIIIIIIIIIIIIIIIIIIIIIIIIIIIII
AAAAAAAAAAAAAA11IIIIIIIIIIIIIIIIIIIIIIIIIIIIIIIIIIIIIIIIIIIIIIII
AAAAAAAAAAAAAAA11IIIIIIIIIIIIIIIIIIIIIIIIIIIIIIIIIIIIIIIIIIIIIII
AAAAAAAAAAAAAAAA11IIIIIIIIIIIIIIIIIIIIIIIIIIIIIIIIIIIIIIIIIIIIII
AAAAAAAAAAAAAAAAA11IIIIIIIIIIIIIIIIIIIIIIIIIIIIIIIIIIIIIIIIIIIII
AAAAAAAAAAAAAAAAAA11IIIIIIIIIIIIIIIIIIIIIIIIIIIIIIIIIIIIIIIIIIII
AAAAAAAAAAAAAAAAAAA11IIIIIIIIIIIIIIIIIIIIIIIIIIIIIIIIIIIIIIIIIII
AAAAAAAAAAAAAAAAAAAA11IIIIIIIIIIIIIIIIIIIIIIIIIIIIIIIIIIIIIIIIII
AAAAAAAAAAAAAAAAAAAAA11IIIIIIIIIIIIIIIIIIIIIIIIIIIIIIIIIIIIIIIII
AAAAAAAAAAAAAAAAAAAAAA11IIIIIIIIIIIIIIIIIIIIIIIIIIIIIIIIIIIIIIII
AAAAAAAAAAAAAAAAAAAAAAA11IIIIIIIIIIIIIIIIIIIIIIIIIIIIIIIIIIIIIII
AAAAAAAAAAAAAAAAAAAAAAAA11IIIIIIIIIIIIIIIIIIIIIIIIIIIIIIIIIIIIII
AAAAAAAAAAAAAAAAAAAAAAAAA11IIIIIIIIIIIIIIIIIIIIIIIIIIIIIIIIIIIII
AAAAAAAAAAAAAAAAAAAAAAAAAA11IIIIIIIIIIIIIIIIIIIIIIIIIIIIIIIIIIII
AAAAAAAAAAAAAAAAAAAAAAAAAAA11IIIIIIIIIIIIIIIIIIIIIIIIIIIIIIIIIII
AAAAAAAAAAAAAAAAAAAAAAAAAAAA11IIIIIIIIIIIIIIIIIIIIIIIIIIIIIIIIII
AAAAAAAAAAAAAAAAAAAAAAAAAAAAA11IIIIIIIIIIIIIIIIIIIIIIIIIIIIIIIII
AAAAAAAAAAAAAAAAAAAAAAAAAAAAAA11IIIIIIIIIIIIIIIIIIIIIIIIIIIIIIII
AAAAAAAAAAAAAAAAAAAAAAAAAAAAAAA11IIIIIIIIIIIIIIIIIIIIIIIIIIIIIII
AAAAAAAAAAAAAAAAAAAAAAAAAAAAAAAA11IIIIIIIIIIIIIIIIIIIIIIIIIIIIII
AAAAAAAAAAAAAAAAAAAAAAAAAAAAAAAAA11IIIIIIIIIIIIIIIIIIIIIIIIIIIII
AAAAAAAAAAAAAAAAAAAAAAAAAAAAAAAAAA11IIIIIIIIIIIIIIIIIIIIIIIIIIII
AAAAAAAAAAAAAAAAAAAAAAAAAAAAAAAAAAA11IIIIIIIIIIIIIIIIIIIIIIIIIII
AAAAAAAAAAAAAAAAAAAAAAAAAAAAAAAAAAAA11IIIIIIIIIIIIIIIIIIIIIIIIII
AAAAAAAAAAAAAAAAAAAAAAAAAAAAAAAAAAAAA11IIIIIIIIIIIIIIIIIIIIIIIII
AAAAAAAAAAAAAAAAAAAAAAAAAAAAAAAAAAAAAA11IIIIIIIIIIIIIIIIIIIIIIII
AAAAAAAAAAAAAAAAAAAAAAAAAAAAAAAAAAAAAAA11IIIIIIIIIIIIIIIIIIIIIII
AAAAAAAAAAAAAAAAAAAAAAAAAAAAAAAAAAAAAAAA11IIIIIIIIIIIIIIIIIIIIII
AAAAAAAAAAAAAAAAAAAAAAAAAAAAAAAAAAAAAAAAA11IIIIIIIIIIIIIIIIIIIII
AAAAAAAAAAAAAAAAAAAAAAAAAAAAAAAAAAAAAAAAAA11IIIIIIIIIIIIIIIIIIII
AAAAAAAAAAAAAAAAAAAAAAAAAAAAAAAAAAAAAAAAAAA11IIIIIIIIIIIIIIIIIII
AAAAAAAAAAAAAAAAAAAAAAAAAAAAAAAAAAAAAAAAAAAA11IIIIIIIIIIIIIIIIII
AAAAAAAAAAAAAAAAAAAAAAAAAAAAAAAAAAAAAAAAAAAAA11IIIIIIIIIIIIIIIII
AAAAAAAAAAAAAAAAAAAAAAAAAAAAAAAAAAAAAAAAAAAAAA11IIIIIIIIIIIIIIII
AAAAAAAAAAAAAAAAAAAAAAAAAAAAAAAAAAAAAAAAAAAAAAA11IIIIIIIIIIIIIII
AAAAAAAAAAAAAAAAAAAAAAAAAAAAAAAAAAAAAAAAAAAAAAAA11IIIIIIIIIIIIII
AAAAAAAAAAAAAAAAAAAAAAAAAAAAAAAAAAAAAAAAAAAAAAAAA11IIIIIIIIIIIII
AAAAAAAAAAAAAAAAAAAAAAAAAAAAAAAAAAAAAAAAAAAAAAAAAA11IIIIIIIIIIII
AAAAAAAAAAAAAAAAAAAAAAAAAAAAAAAAAAAAAAAAAAAAAAAAAAA11IIIIIIIIIII
AAAAAAAAAAAAAAAAAAAAAAAAAAAAAAAAAAAAAAAAAAAAAAAAAAAA11IIIIIIIIII
AAAAAAAAAAAAAAAAAAAAAAAAAAAAAAAAAAAAAAAAAAAAAAAAAAAAA11IIIIIIIII
AAAAAAAAAAAAAAAAAAAAAAAAAAAAAAAAAAAAAAAAAAAAAAAAAAAAAA11IIIIIIII
AAAAAAAAAAAAAAAAAAAAAAAAAAAAAAAAAAAAAAAAAAAAAAAAAAAAAAA11IIIIIII
AAAAAAAAAAAAAAAAAAAAAAAAAAAAAAAAAAAAAAAAAAAAAAAAAAAAAAAA11IIIIII
AAAAAAAAAAAAAAAAAAAAAAAAAAAAAAAAAAAAAAAAAAAAAAAAAAAAAAAAA11IIIII
AAAAAAAAAAAAAAAAAAAAAAAAAAAAAAAAAAAAAAAAAAAAAAAAAAAAAAAAAA11IIII
AAAAAAAAAAAAAAAAAAAAAAAAAAAAAAAAAAAAAAAAAAAAAAAAAAAAAAAAAAA11III
AAAAAAAAAAAAAAAAAAAAAAAAAAAAAAAAAAAAAAAAAAAAAAAAAAAAAAAAAAAA11II
AAAAAAAAAAAAAAAAAAAAAAAAAAAAAAAAAAAAAAAAAAAAAAAAAAAAAAAAAAAAA11I
AAAAAAAAAAAAAAAAAAAAAAAAAAAAAAAAAAAAAAAAAAAAAAAAAAAAAAAAAAAAAA11
AAAAAAAAAAAAAAAAAAAAAAAAAAAAAAAAAAAAAAAAAAAAAAAAAAAAAAAAAAAAAAA1
AAAAAAAAAAAAAAAAAAAAAAAAAAAAAAAAAAAAAAAAAAAAAAAAAAAAAAAAAAAAAAAA
[MLOP] Prefetch Degree Mean: 2
[MLOP] Prefetch Degree SD: 0
[MLOP] Max Score Left Mean (%): 95.0368
[MLOP] Max Score Left SD (%): 2.92354
[MLOP] Max Score Right Mean (%): 99.9
[MLOP] Max Score Right SD (%): 0.424884
LLC TOTAL     ACCESS:    2528055  HIT:     745685  MISS:    1782370  HIT %:    29.4964  MISS %:    70.5036   MPKI: 3.04492
LLC LOAD      ACCESS:      17614  HIT:          0  MISS:      17614  HIT %:          0  MISS %:        100   MPKI: 0.030091
LLC RFO       ACCESS:     281128  HIT:          0  MISS:     281128  HIT %:          0  MISS %:        100   MPKI: 0.480267
LLC PREFETCH  ACCESS:    1104519  HIT:          0  MISS:    1104519  HIT %:          0  MISS %:        100   MPKI: 1.88691
LLC WRITEBACK ACCESS:    1122005  HIT:     745675  MISS:     376330  HIT %:    66.4592  MISS %:    33.5408   MPKI: 0.642906

RAW hits: 3
Loads Generated: 87749318
Loads sent to L1D: 87749315
Stores Generated: 38919910
Stores sent to L1D: 38919911

CPU 1 cumulative IPC: 0.307816 instructions: 200000000 cycles: 649738212
ITLB TOTAL     ACCESS:   33430360  HIT:   33430360  MISS:          0  HIT %:        100  MISS %:          0   MPKI: 0
ITLB LOAD      ACCESS:          0  HIT:          0  MISS:          0  HIT %:       -nan  MISS %:       -nan   MPKI: 0
ITLB RFO       ACCESS:          0  HIT:          0  MISS:          0  HIT %:       -nan  MISS %:       -nan   MPKI: 0
ITLB PREFETCH  ACCESS:          0  HIT:          0  MISS:          0  HIT %:       -nan  MISS %:       -nan   MPKI: 0
ITLB WRITEBACK ACCESS:          0  HIT:          0  MISS:          0  HIT %:       -nan  MISS %:       -nan   MPKI: 0
DTLB TOTAL     ACCESS:   34666895  HIT:   34478520  MISS:     188375  HIT %:    99.4566  MISS %:   0.543386   MPKI: 0.941875
DTLB LOAD      ACCESS:          0  HIT:          0  MISS:          0  HIT %:       -nan  MISS %:       -nan   MPKI: 0
DTLB RFO       ACCESS:          0  HIT:          0  MISS:          0  HIT %:       -nan  MISS %:       -nan   MPKI: 0
DTLB PREFETCH  ACCESS:          0  HIT:          0  MISS:          0  HIT %:       -nan  MISS %:       -nan   MPKI: 0
DTLB WRITEBACK ACCESS:          0  HIT:          0  MISS:          0  HIT %:       -nan  MISS %:       -nan   MPKI: 0
STLB TOTAL     ACCESS:    2937442  HIT:    2772317  MISS:     165125  HIT %:    94.3786  MISS %:    5.62139   MPKI: 0.825625
STLB LOAD      ACCESS:          0  HIT:          0  MISS:          0  HIT %:       -nan  MISS %:       -nan   MPKI: 0
STLB RFO       ACCESS:          0  HIT:          0  MISS:          0  HIT %:       -nan  MISS %:       -nan   MPKI: 0
STLB PREFETCH  ACCESS:          0  HIT:          0  MISS:          0  HIT %:       -nan  MISS %:       -nan   MPKI: 0
STLB WRITEBACK ACCESS:          0  HIT:          0  MISS:          0  HIT %:       -nan  MISS %:       -nan   MPKI: 0
L1D TOTAL     ACCESS:   39260885  HIT:   32627026  MISS:    6633859  HIT %:    83.1031  MISS %:    16.8969   MPKI: 33.1693
L1D LOAD      ACCESS:   31621153  HIT:   28843570  MISS:    2777583  HIT %:    91.2161  MISS %:    8.78394   MPKI: 13.8879
L1D RFO       ACCESS:    3953518  HIT:    3783357  MISS:     170161  HIT %:     95.696  MISS %:    4.30404   MPKI: 0.850805
L1D PREFETCH  ACCESS:    3686214  HIT:         99  MISS:    3686115  HIT %: 0.00268568  MISS %:    99.9973   MPKI: 18.4306
L1D WRITEBACK ACCESS:          0  HIT:          0  MISS:          0  HIT %:       -nan  MISS %:       -nan   MPKI: 0
L1I TOTAL     ACCESS:   42125399  HIT:   42125384  MISS:         15  HIT %:        100  MISS %: 3.5608e-05   MPKI: 7.5e-05
L1I LOAD      ACCESS:   42125399  HIT:   42125384  MISS:         15  HIT %:        100  MISS %: 3.5608e-05   MPKI: 7.5e-05
L1I RFO       ACCESS:          0  HIT:          0  MISS:          0  HIT %:       -nan  MISS %:       -nan   MPKI: 0
L1I PREFETCH  ACCESS:          0  HIT:          0  MISS:          0  HIT %:       -nan  MISS %:       -nan   MPKI: 0
L1I WRITEBACK ACCESS:          0  HIT:          0  MISS:          0  HIT %:       -nan  MISS %:       -nan   MPKI: 0
L2C TOTAL     ACCESS:    8090421  HIT:    2713439  MISS:    5376982  HIT %:    33.5389  MISS %:    66.4611   MPKI: 26.8849
L2C LOAD      ACCESS:    2591114  HIT:    1556877  MISS:    1034237  HIT %:    60.0852  MISS %:    39.9148   MPKI: 5.17119
L2C RFO       ACCESS:     170152  HIT:       7768  MISS:     162384  HIT %:    4.56533  MISS %:    95.4347   MPKI: 0.81192
L2C PREFETCH  ACCESS:    4634938  HIT:     499678  MISS:    4135260  HIT %:    10.7807  MISS %:    89.2193   MPKI: 20.6763
L2C WRITEBACK ACCESS:     528232  HIT:     516114  MISS:      12118  HIT %:    97.7059  MISS %:    2.29407   MPKI: 0.06059
PSCL5 TOTAL     ACCESS:     165125  HIT:     165125  MISS:          0  HIT %:        100  MISS %:          0   MPKI: 0
PSCL5 LOAD      ACCESS:          0  HIT:          0  MISS:          0  HIT %:       -nan  MISS %:       -nan   MPKI: 0
PSCL5 RFO       ACCESS:          0  HIT:          0  MISS:          0  HIT %:       -nan  MISS %:       -nan   MPKI: 0
PSCL5 PREFETCH  ACCESS:          0  HIT:          0  MISS:          0  HIT %:       -nan  MISS %:       -nan   MPKI: 0
PSCL5 WRITEBACK ACCESS:          0  HIT:          0  MISS:          0  HIT %:       -nan  MISS %:       -nan   MPKI: 0
PSCL4 TOTAL     ACCESS:     165125  HIT:     165125  MISS:          0  HIT %:        100  MISS %:          0   MPKI: 0
PSCL4 LOAD      ACCESS:          0  HIT:          0  MISS:          0  HIT %:       -nan  MISS %:       -nan   MPKI: 0
PSCL4 RFO       ACCESS:          0  HIT:          0  MISS:          0  HIT %:       -nan  MISS %:       -nan   MPKI: 0
PSCL4 PREFETCH  ACCESS:          0  HIT:          0  MISS:          0  HIT %:       -nan  MISS %:       -nan   MPKI: 0
PSCL4 WRITEBACK ACCESS:          0  HIT:          0  MISS:          0  HIT %:       -nan  MISS %:       -nan   MPKI: 0
PSCL3 TOTAL     ACCESS:     165125  HIT:     165125  MISS:          0  HIT %:        100  MISS %:          0   MPKI: 0
PSCL3 LOAD      ACCESS:          0  HIT:          0  MISS:          0  HIT %:       -nan  MISS %:       -nan   MPKI: 0
PSCL3 RFO       ACCESS:          0  HIT:          0  MISS:          0  HIT %:       -nan  MISS %:       -nan   MPKI: 0
PSCL3 PREFETCH  ACCESS:          0  HIT:          0  MISS:          0  HIT %:       -nan  MISS %:       -nan   MPKI: 0
PSCL3 WRITEBACK ACCESS:          0  HIT:          0  MISS:          0  HIT %:       -nan  MISS %:       -nan   MPKI: 0
PSCL2 TOTAL     ACCESS:     165125  HIT:     164263  MISS:        862  HIT %:     99.478  MISS %:   0.522029   MPKI: 0.00431
PSCL2 LOAD      ACCESS:          0  HIT:          0  MISS:          0  HIT %:       -nan  MISS %:       -nan   MPKI: 0
PSCL2 RFO       ACCESS:          0  HIT:          0  MISS:          0  HIT %:       -nan  MISS %:       -nan   MPKI: 0
PSCL2 PREFETCH  ACCESS:          0  HIT:          0  MISS:          0  HIT %:       -nan  MISS %:       -nan   MPKI: 0
PSCL2 WRITEBACK ACCESS:          0  HIT:          0  MISS:          0  HIT %:       -nan  MISS %:       -nan   MPKI: 0
=== CPU 1 L1D Prefetcher Statistics ===
[MLOP] History of tracked zone:
IIIIIIIIIIIIIIIIIIIIIIIIIIIIIIIIIIIIIIIIIIIIIIIIIIIIIIIIIIIIIIII
A111IIIIIIIIIIIIIIIIIIIIIIIIIIIIIIIIIIIIIIIIIIIIIIIIIIIIIIIIIIII
AA111IIIIIIIIIIIIIIIIIIIIIIIIIIIIIIIIIIIIIIIIIIIIIIIIIIIIIIIIIII
AAA111IIIIIIIIIIIIIIIIIIIIIIIIIIIIIIIIIIIIIIIIIIIIIIIIIIIIIIIIII
AAAA111IIIIIIIIIIIIIIIIIIIIIIIIIIIIIIIIIIIIIIIIIIIIIIIIIIIIIIIII
AAAAA111IIIIIIIIIIIIIIIIIIIIIIIIIIIIIIIIIIIIIIIIIIIIIIIIIIIIIIII
AAAAAA111IIIIIIIIIIIIIIIIIIIIIIIIIIIIIIIIIIIIIIIIIIIIIIIIIIIIIII
AAAAAAA111IIIIIIIIIIIIIIIIIIIIIIIIIIIIIIIIIIIIIIIIIIIIIIIIIIIIII
AAAAAAAA111IIIIIIIIIIIIIIIIIIIIIIIIIIIIIIIIIIIIIIIIIIIIIIIIIIIII
AAAAAAAAA111IIIIIIIIIIIIIIIIIIIIIIIIIIIIIIIIIIIIIIIIIIIIIIIIIIII
AAAAAAAAAA111IIIIIIIIIIIIIIIIIIIIIIIIIIIIIIIIIIIIIIIIIIIIIIIIIII
AAAAAAAAAAA111IIIIIIIIIIIIIIIIIIIIIIIIIIIIIIIIIIIIIIIIIIIIIIIIII
AAAAAAAAAAAA111IIIIIIIIIIIIIIIIIIIIIIIIIIIIIIIIIIIIIIIIIIIIIIIII
AAAAAAAAAAAAA111IIIIIIIIIIIIIIIIIIIIIIIIIIIIIIIIIIIIIIIIIIIIIIII
AAAAAAAAAAAAAA111IIIIIIIIIIIIIIIIIIIIIIIIIIIIIIIIIIIIIIIIIIIIIII
AAAAAAAAAAAAAAA111IIIIIIIIIIIIIIIIIIIIIIIIIIIIIIIIIIIIIIIIIIIIII
AAAAAAAAAAAAAAAA111IIIIIIIIIIIIIIIIIIIIIIIIIIIIIIIIIIIIIIIIIIIII
AAAAAAAAAAAAAAAAA111IIIIIIIIIIIIIIIIIIIIIIIIIIIIIIIIIIIIIIIIIIII
AAAAAAAAAAAAAAAAAA111IIIIIIIIIIIIIIIIIIIIIIIIIIIIIIIIIIIIIIIIIII
AAAAAAAAAAAAAAAAAAA111IIIIIIIIIIIIIIIIIIIIIIIIIIIIIIIIIIIIIIIIII
AAAAAAAAAAAAAAAAAAAA111IIIIIIIIIIIIIIIIIIIIIIIIIIIIIIIIIIIIIIIII
AAAAAAAAAAAAAAAAAAAAA111IIIIIIIIIIIIIIIIIIIIIIIIIIIIIIIIIIIIIIII
AAAAAAAAAAAAAAAAAAAAAA111IIIIIIIIIIIIIIIIIIIIIIIIIIIIIIIIIIIIIII
AAAAAAAAAAAAAAAAAAAAAAA111IIIIIIIIIIIIIIIIIIIIIIIIIIIIIIIIIIIIII
AAAAAAAAAAAAAAAAAAAAAAAA111IIIIIIIIIIIIIIIIIIIIIIIIIIIIIIIIIIIII
AAAAAAAAAAAAAAAAAAAAAAAAA111IIIIIIIIIIIIIIIIIIIIIIIIIIIIIIIIIIII
AAAAAAAAAAAAAAAAAAAAAAAAAA111IIIIIIIIIIIIIIIIIIIIIIIIIIIIIIIIIII
AAAAAAAAAAAAAAAAAAAAAAAAAAA111IIIIIIIIIIIIIIIIIIIIIIIIIIIIIIIIII
AAAAAAAAAAAAAAAAAAAAAAAAAAAA111IIIIIIIIIIIIIIIIIIIIIIIIIIIIIIIII
AAAAAAAAAAAAAAAAAAAAAAAAAAAAA111IIIIIIIIIIIIIIIIIIIIIIIIIIIIIIII
AAAAAAAAAAAAAAAAAAAAAAAAAAAAAA111IIIIIIIIIIIIIIIIIIIIIIIIIIIIIII
AAAAAAAAAAAAAAAAAAAAAAAAAAAAAAA111IIIIIIIIIIIIIIIIIIIIIIIIIIIIII
AAAAAAAAAAAAAAAAAAAAAAAAAAAAAAAA111IIIIIIIIIIIIIIIIIIIIIIIIIIIII
AAAAAAAAAAAAAAAAAAAAAAAAAAAAAAAAA111IIIIIIIIIIIIIIIIIIIIIIIIIIII
AAAAAAAAAAAAAAAAAAAAAAAAAAAAAAAAAA111IIIIIIIIIIIIIIIIIIIIIIIIIII
AAAAAAAAAAAAAAAAAAAAAAAAAAAAAAAAAAA111IIIIIIIIIIIIIIIIIIIIIIIIII
AAAAAAAAAAAAAAAAAAAAAAAAAAAAAAAAAAAA111IIIIIIIIIIIIIIIIIIIIIIIII
AAAAAAAAAAAAAAAAAAAAAAAAAAAAAAAAAAAAA111IIIIIIIIIIIIIIIIIIIIIIII
AAAAAAAAAAAAAAAAAAAAAAAAAAAAAAAAAAAAAA111IIIIIIIIIIIIIIIIIIIIIII
AAAAAAAAAAAAAAAAAAAAAAAAAAAAAAAAAAAAAAA111IIIIIIIIIIIIIIIIIIIIII
AAAAAAAAAAAAAAAAAAAAAAAAAAAAAAAAAAAAAAAA111IIIIIIIIIIIIIIIIIIIII
AAAAAAAAAAAAAAAAAAAAAAAAAAAAAAAAAAAAAAAAA111IIIIIIIIIIIIIIIIIIII
AAAAAAAAAAAAAAAAAAAAAAAAAAAAAAAAAAAAAAAAAA111IIIIIIIIIIIIIIIIIII
AAAAAAAAAAAAAAAAAAAAAAAAAAAAAAAAAAAAAAAAAAA111IIIIIIIIIIIIIIIIII
AAAAAAAAAAAAAAAAAAAAAAAAAAAAAAAAAAAAAAAAAAAA111IIIIIIIIIIIIIIIII
AAAAAAAAAAAAAAAAAAAAAAAAAAAAAAAAAAAAAAAAAAAAA111IIIIIIIIIIIIIIII
AAAAAAAAAAAAAAAAAAAAAAAAAAAAAAAAAAAAAAAAAAAAAA111IIIIIIIIIIIIIII
AAAAAAAAAAAAAAAAAAAAAAAAAAAAAAAAAAAAAAAAAAAAAAA111IIIIIIIIIIIIII
AAAAAAAAAAAAAAAAAAAAAAAAAAAAAAAAAAAAAAAAAAAAAAAA111IIIIIIIIIIIII
AAAAAAAAAAAAAAAAAAAAAAAAAAAAAAAAAAAAAAAAAAAAAAAAA111IIIIIIIIIIII
AAAAAAAAAAAAAAAAAAAAAAAAAAAAAAAAAAAAAAAAAAAAAAAAAA111IIIIIIIIIII
AAAAAAAAAAAAAAAAAAAAAAAAAAAAAAAAAAAAAAAAAAAAAAAAAAA111IIIIIIIIII
AAAAAAAAAAAAAAAAAAAAAAAAAAAAAAAAAAAAAAAAAAAAAAAAAAAA111IIIIIIIII
AAAAAAAAAAAAAAAAAAAAAAAAAAAAAAAAAAAAAAAAAAAAAAAAAAAAA111IIIIIIII
AAAAAAAAAAAAAAAAAAAAAAAAAAAAAAAAAAAAAAAAAAAAAAAAAAAAAA111IIIIIII
AAAAAAAAAAAAAAAAAAAAAAAAAAAAAAAAAAAAAAAAAAAAAAAAAAAAAAA111IIIIII
AAAAAAAAAAAAAAAAAAAAAAAAAAAAAAAAAAAAAAAAAAAAAAAAAAAAAAAA111IIIII
AAAAAAAAAAAAAAAAAAAAAAAAAAAAAAAAAAAAAAAAAAAAAAAAAAAAAAAAA111IIII
AAAAAAAAAAAAAAAAAAAAAAAAAAAAAAAAAAAAAAAAAAAAAAAAAAAAAAAAAA111III
AAAAAAAAAAAAAAAAAAAAAAAAAAAAAAAAAAAAAAAAAAAAAAAAAAAAAAAAAAA111II
AAAAAAAAAAAAAAAAAAAAAAAAAAAAAAAAAAAAAAAAAAAAAAAAAAAAAAAAAAAA111I
AAAAAAAAAAAAAAAAAAAAAAAAAAAAAAAAAAAAAAAAAAAAAAAAAAAAAAAAAAAAA111
AAAAAAAAAAAAAAAAAAAAAAAAAAAAAAAAAAAAAAAAAAAAAAAAAAAAAAAAAAAAAA11
AAAAAAAAAAAAAAAAAAAAAAAAAAAAAAAAAAAAAAAAAAAAAAAAAAAAAAAAAAAAAAA1
AAAAAAAAAAAAAAAAAAAAAAAAAAAAAAAAAAAAAAAAAAAAAAAAAAAAAAAAAAAAAAAA
AII1IIIII2I222IIIIIIIIIIIIIIIIIIIIIIIIIIIIIIIIIIIIIIIIIIIIIIIIII
AAI11IIII222222IIIIIIIIIIIIIIIIIIIIIIIIIIIIIIIIIIIIIIIIIIIIIIIII
AAA111III2222222IIIIIIIIIIIIIIIIIIIIIIIIIIIIIIIIIIIIIIIIIIIIIIII
AAAA111II22222222IIIIIIIIIIIIIIIIIIIIIIIIIIIIIIIIIIIIIIIIIIIIIII
AAAAA111I222222222IIIIIIIIIIIIIIIIIIIIIIIIIIIIIIIIIIIIIIIIIIIIII
AAAAAA1112222222222IIIIIIIIIIIIIIIIIIIIIIIIIIIIIIIIIIIIIIIIIIIII
AAAAAAA1112222222222IIIIIIIIIIIIIIIIIIIIIIIIIIIIIIIIIIIIIIIIIIII
AAAAAAAA1112222222222IIIIIIIIIIIIIIIIIIIIIIIIIIIIIIIIIIIIIIIIIII
AAAAAAAAA1112222222222IIIIIIIIIIIIIIIIIIIIIIIIIIIIIIIIIIIIIIIIII
AAAAAAAAAA1112222222222IIIIIIIIIIIIIIIIIIIIIIIIIIIIIIIIIIIIIIIII
AAAAAAAAAAA1112222222222IIIIIIIIIIIIIIIIIIIIIIIIIIIIIIIIIIIIIIII
AAAAAAAAAAAA1112222222222IIIIIIIIIIIIIIIIIIIIIIIIIIIIIIIIIIIIIII
AAAAAAAAAAAAA1112222222222IIIIIIIIIIIIIIIIIIIIIIIIIIIIIIIIIIIIII
AAAAAAAAAAAAAA1112222222222IIIIIIIIIIIIIIIIIIIIIIIIIIIIIIIIIIIII
AAAAAAAAAAAAAAA1112222222222IIIIIIIIIIIIIIIIIIIIIIIIIIIIIIIIIIII
AAAAAAAAAAAAAAAA1112222222222IIIIIIIIIIIIIIIIIIIIIIIIIIIIIIIIIII
AAAAAAAAAAAAAAAAA1112222222222IIIIIIIIIIIIIIIIIIIIIIIIIIIIIIIIII
AAAAAAAAAAAAAAAAAA1112222222222IIIIIIIIIIIIIIIIIIIIIIIIIIIIIIIII
AAAAAAAAAAAAAAAAAAA1112222222222IIIIIIIIIIIIIIIIIIIIIIIIIIIIIIII
AAAAAAAAAAAAAAAAAAAA1112222222222IIIIIIIIIIIIIIIIIIIIIIIIIIIIIII
AAAAAAAAAAAAAAAAAAAAA1112222222222IIIIIIIIIIIIIIIIIIIIIIIIIIIIII
AAAAAAAAAAAAAAAAAAAAAA1112222222222IIIIIIIIIIIIIIIIIIIIIIIIIIIII
AAAAAAAAAAAAAAAAAAAAAAA1112222222222IIIIIIIIIIIIIIIIIIIIIIIIIIII
AAAAAAAAAAAAAAAAAAAAAAAA1112222222222IIIIIIIIIIIIIIIIIIIIIIIIIII
AAAAAAAAAAAAAAAAAAAAAAAAA1112222222222IIIIIIIIIIIIIIIIIIIIIIIIII
AAAAAAAAAAAAAAAAAAAAAAAAAA1112222222222IIIIIIIIIIIIIIIIIIIIIIIII
AAAAAAAAAAAAAAAAAAAAAAAAAAA1112222222222IIIIIIIIIIIIIIIIIIIIIIII
AAAAAAAAAAAAAAAAAAAAAAAAAAAA1112222222222IIIIIIIIIIIIIIIIIIIIIII
AAAAAAAAAAAAAAAAAAAAAAAAAAAAA1112222222222IIIIIIIIIIIIIIIIIIIIII
AAAAAAAAAAAAAAAAAAAAAAAAAAAAAA1112222222222IIIIIIIIIIIIIIIIIIIII
AAAAAAAAAAAAAAAAAAAAAAAAAAAAAAA1112222222222IIIIIIIIIIIIIIIIIIII
AAAAAAAAAAAAAAAAAAAAAAAAAAAAAAAA1112222222222IIIIIIIIIIIIIIIIIII
AAAAAAAAAAAAAAAAAAAAAAAAAAAAAAAAA1112222222222IIIIIIIIIIIIIIIIII
AAAAAAAAAAAAAAAAAAAAAAAAAAAAAAAAAA1112222222222IIIIIIIIIIIIIIIII
AAAAAAAAAAAAAAAAAAAAAAAAAAAAAAAAAAA1112222222222IIIIIIIIIIIIIIII
AAAAAAAAAAAAAAAAAAAAAAAAAAAAAAAAAAAA1112222222222IIIIIIIIIIIIIII
AAAAAAAAAAAAAAAAAAAAAAAAAAAAAAAAAAAAA1112222222222IIIIIIIIIIIIII
AAAAAAAAAAAAAAAAAAAAAAAAAAAAAAAAAAAAAA1112222222222IIIIIIIIIIIII
AAAAAAAAAAAAAAAAAAAAAAAAAAAAAAAAAAAAAAA1112222222222IIIIIIIIIIII
AAAAAAAAAAAAAAAAAAAAAAAAAAAAAAAAAAAAAAAA1112222222222IIIIIIIIIII
AAAAAAAAAAAAAAAAAAAAAAAAAAAAAAAAAAAAAAAAA1112222222222IIIIIIIIII
AAAAAAAAAAAAAAAAAAAAAAAAAAAAAAAAAAAAAAAAAA1112222222222IIIIIIIII
AAAAAAAAAAAAAAAAAAAAAAAAAAAAAAAAAAAAAAAAAAA1112222222222IIIIIIII
AAAAAAAAAAAAAAAAAAAAAAAAAAAAAAAAAAAAAAAAAAAA1112222222222IIIIIII
AAAAAAAAAAAAAAAAAAAAAAAAAAAAAAAAAAAAAAAAAAAAA1112222222222IIIIII
AAAAAAAAAAAAAAAAAAAAAAAAAAAAAAAAAAAAAAAAAAAAAA1112222222222IIIII
AAAAAAAAAAAAAAAAAAAAAAAAAAAAAAAAAAAAAAAAAAAAAAA1112222222222IIII
AAAAAAAAAAAAAAAAAAAAAAAAAAAAAAAAAAAAAAAAAAAAAAAA1112222222222III
AAAAAAAAAAAAAAAAAAAAAAAAAAAAAAAAAAAAAAAAAAAAAAAAA1112222222222II
AAAAAAAAAAAAAAAAAAAAAAAAAAAAAAAAAAAAAAAAAAAAAAAAAA1112222222222I
AAAAAAAAAAAAAAAAAAAAAAAAAAAAAAAAAAAAAAAAAAAAAAAAAAA1112222222222
AAAAAAAAAAAAAAAAAAAAAAAAAAAAAAAAAAAAAAAAAAAAAAAAAAAA111222222222
AAAAAAAAAAAAAAAAAAAAAAAAAAAAAAAAAAAAAAAAAAAAAAAAAAAAA11122222222
AAAAAAAAAAAAAAAAAAAAAAAAAAAAAAAAAAAAAAAAAAAAAAAAAAAAAA1112222222
AAAAAAAAAAAAAAAAAAAAAAAAAAAAAAAAAAAAAAAAAAAAAAAAAAAAAAA111222222
AAAAAAAAAAAAAAAAAAAAAAAAAAAAAAAAAAAAAAAAAAAAAAAAAAAAAAAA11122222
AAAAAAAAAAAAAAAAAAAAAAAAAAAAAAAAAAAAAAAAAAAAAAAAAAAAAAAAA1112222
AAAAAAAAAAAAAAAAAAAAAAAAAAAAAAAAAAAAAAAAAAAAAAAAAAAAAAAAAA111222
AAAAAAAAAAAAAAAAAAAAAAAAAAAAAAAAAAAAAAAAAAAAAAAAAAAAAAAAAAA11122
AAAAAAAAAAAAAAAAAAAAAAAAAAAAAAAAAAAAAAAAAAAAAAAAAAAAAAAAAAAA1112
AAAAAAAAAAAAAAAAAAAAAAAAAAAAAAAAAAAAAAAAAAAAAAAAAAAAAAAAAAAAA111
AAAAAAAAAAAAAAAAAAAAAAAAAAAAAAAAAAAAAAAAAAAAAAAAAAAAAAAAAAAAAA11
AAAAAAAAAAAAAAAAAAAAAAAAAAAAAAAAAAAAAAAAAAAAAAAAAAAAAAAAAAAAAAA1
AAAAAAAAAAAAAAAAAAAAAAAAAAAAAAAAAAAAAAAAAAAAAAAAAAAAAAAAAAAAAAAA
A111111IIIIIIIIIIIIIIIIIIIIIIIIIIIIIIIIIIIIIIIIIIIIIIIIIIIIIIIII
AA111111IIIIIIIIIIIIIIIIIIIIIIIIIIIIIIIIIIIIIIIIIIIIIIIIIIIIIIII
AAA111111IIIIIIIIIIIIIIIIIIIIIIIIIIIIIIIIIIIIIIIIIIIIIIIIIIIIIII
AAAA111111IIIIIIIIIIIIIIIIIIIIIIIIIIIIIIIIIIIIIIIIIIIIIIIIIIIIII
AAAAA111111IIIIIIIIIIIIIIIIIIIIIIIIIIIIIIIIIIIIIIIIIIIIIIIIIIIII
AAAAAA111111IIIIIIIIIIIIIIIIIIIIIIIIIIIIIIIIIIIIIIIIIIIIIIIIIIII
AAAAAAA111111IIIIIIIIIIIIIIIIIIIIIIIIIIIIIIIIIIIIIIIIIIIIIIIIIII
AAAAAAAA111111IIIIIIIIIIIIIIIIIIIIIIIIIIIIIIIIIIIIIIIIIIIIIIIIII
AAAAAAAAA111111IIIIIIIIIIIIIIIIIIIIIIIIIIIIIIIIIIIIIIIIIIIIIIIII
AAAAAAAAAA111111IIIIIIIIIIIIIIIIIIIIIIIIIIIIIIIIIIIIIIIIIIIIIIII
AAAAAAAAAAA111111IIIIIIIIIIIIIIIIIIIIIIIIIIIIIIIIIIIIIIIIIIIIIII
AAAAAAAAAAAA111111IIIIIIIIIIIIIIIIIIIIIIIIIIIIIIIIIIIIIIIIIIIIII
AAAAAAAAAAAAA111111IIIIIIIIIIIIIIIIIIIIIIIIIIIIIIIIIIIIIIIIIIIII
AAAAAAAAAAAAAA111111IIIIIIIIIIIIIIIIIIIIIIIIIIIIIIIIIIIIIIIIIIII
AAAAAAAAAAAAAAA111111IIIIIIIIIIIIIIIIIIIIIIIIIIIIIIIIIIIIIIIIIII
AAAAAAAAAAAAAAAA111111IIIIIIIIIIIIIIIIIIIIIIIIIIIIIIIIIIIIIIIIII
AAAAAAAAAAAAAAAAA111111IIIIIIIIIIIIIIIIIIIIIIIIIIIIIIIIIIIIIIIII
AAAAAAAAAAAAAAAAAA111111IIIIIIIIIIIIIIIIIIIIIIIIIIIIIIIIIIIIIIII
AAAAAAAAAAAAAAAAAAA111111IIIIIIIIIIIIIIIIIIIIIIIIIIIIIIIIIIIIIII
AAAAAAAAAAAAAAAAAAAA111111IIIIIIIIIIIIIIIIIIIIIIIIIIIIIIIIIIIIII
AAAAAAAAAAAAAAAAAAAAA111111IIIIIIIIIIIIIIIIIIIIIIIIIIIIIIIIIIIII
AAAAAAAAAAAAAAAAAAAAAA111111IIIIIIIIIIIIIIIIIIIIIIIIIIIIIIIIIIII
AAAAAAAAAAAAAAAAAAAAAAA111111IIIIIIIIIIIIIIIIIIIIIIIIIIIIIIIIIII
AAAAAAAAAAAAAAAAAAAAAAAA111111IIIIIIIIIIIIIIIIIIIIIIIIIIIIIIIIII
AAAAAAAAAAAAAAAAAAAAAAAAA111111IIIIIIIIIIIIIIIIIIIIIIIIIIIIIIIII
AAAAAAAAAAAAAAAAAAAAAAAAAA111111IIIIIIIIIIIIIIIIIIIIIIIIIIIIIIII
AAAAAAAAAAAAAAAAAAAAAAAAAAA111111IIIIIIIIIIIIIIIIIIIIIIIIIIIIIII
AAAAAAAAAAAAAAAAAAAAAAAAAAAA111111IIIIIIIIIIIIIIIIIIIIIIIIIIIIII
AAAAAAAAAAAAAAAAAAAAAAAAAAAAA111111IIIIIIIIIIIIIIIIIIIIIIIIIIIII
AAAAAAAAAAAAAAAAAAAAAAAAAAAAAA111111IIIIIIIIIIIIIIIIIIIIIIIIIIII
AAAAAAAAAAAAAAAAAAAAAAAAAAAAAAA111111IIIIIIIIIIIIIIIIIIIIIIIIIII
AAAAAAAAAAAAAAAAAAAAAAAAAAAAAAAA111111IIIIIIIIIIIIIIIIIIIIIIIIII
AAAAAAAAAAAAAAAAAAAAAAAAAAAAAAAAA111111IIIIIIIIIIIIIIIIIIIIIIIII
AAAAAAAAAAAAAAAAAAAAAAAAAAAAAAAAAA111111IIIIIIIIIIIIIIIIIIIIIIII
AAAAAAAAAAAAAAAAAAAAAAAAAAAAAAAAAAA111111IIIIIIIIIIIIIIIIIIIIIII
AAAAAAAAAAAAAAAAAAAAAAAAAAAAAAAAAAAA111111IIIIIIIIIIIIIIIIIIIIII
AAAAAAAAAAAAAAAAAAAAAAAAAAAAAAAAAAAAA111111IIIIIIIIIIIIIIIIIIIII
AAAAAAAAAAAAAAAAAAAAAAAAAAAAAAAAAAAAAA111111IIIIIIIIIIIIIIIIIIII
AAAAAAAAAAAAAAAAAAAAAAAAAAAAAAAAAAAAAAA111111IIIIIIIIIIIIIIIIIII
AAAAAAAAAAAAAAAAAAAAAAAAAAAAAAAAAAAAAAAA111111IIIIIIIIIIIIIIIIII
AAAAAAAAAAAAAAAAAAAAAAAAAAAAAAAAAAAAAAAAA111111IIIIIIIIIIIIIIIII
AAAAAAAAAAAAAAAAAAAAAAAAAAAAAAAAAAAAAAAAAA111111IIIIIIIIIIIIIIII
AAAAAAAAAAAAAAAAAAAAAAAAAAAAAAAAAAAAAAAAAAA111111IIIIIIIIIIIIIII
AAAAAAAAAAAAAAAAAAAAAAAAAAAAAAAAAAAAAAAAAAAA111111IIIIIIIIIIIIII
AAAAAAAAAAAAAAAAAAAAAAAAAAAAAAAAAAAAAAAAAAAAA111111IIIIIIIIIIIII
AAAAAAAAAAAAAAAAAAAAAAAAAAAAAAAAAAAAAAAAAAAAAA111111IIIIIIIIIIII
AAAAAAAAAAAAAAAAAAAAAAAAAAAAAAAAAAAAAAAAAAAAAAA111111IIIIIIIIIII
AAAAAAAAAAAAAAAAAAAAAAAAAAAAAAAAAAAAAAAAAAAAAAAA111111IIIIIIIIII
AAAAAAAAAAAAAAAAAAAAAAAAAAAAAAAAAAAAAAAAAAAAAAAAA111111IIIIIIIII
AAAAAAAAAAAAAAAAAAAAAAAAAAAAAAAAAAAAAAAAAAAAAAAAAA111111IIIIIIII
AAAAAAAAAAAAAAAAAAAAAAAAAAAAAAAAAAAAAAAAAAAAAAAAAAA111111IIIIIII
AAAAAAAAAAAAAAAAAAAAAAAAAAAAAAAAAAAAAAAAAAAAAAAAAAAA111111IIIIII
AAAAAAAAAAAAAAAAAAAAAAAAAAAAAAAAAAAAAAAAAAAAAAAAAAAAA111111IIIII
AAAAAAAAAAAAAAAAAAAAAAAAAAAAAAAAAAAAAAAAAAAAAAAAAAAAAA111111IIII
AAAAAAAAAAAAAAAAAAAAAAAAAAAAAAAAAAAAAAAAAAAAAAAAAAAAAAA111111III
AAAAAAAAAAAAAAAAAAAAAAAAAAAAAAAAAAAAAAAAAAAAAAAAAAAAAAAA111111II
AAAAAAAAAAAAAAAAAAAAAAAAAAAAAAAAAAAAAAAAAAAAAAAAAAAAAAAAA111111I
AAAAAAAAAAAAAAAAAAAAAAAAAAAAAAAAAAAAAAAAAAAAAAAAAAAAAAAAAA111111
AAAAAAAAAAAAAAAAAAAAAAAAAAAAAAAAAAAAAAAAAAAAAAAAAAAAAAAAAAA11111
AAAAAAAAAAAAAAAAAAAAAAAAAAAAAAAAAAAAAAAAAAAAAAAAAAAAAAAAAAAA1111
AAAAAAAAAAAAAAAAAAAAAAAAAAAAAAAAAAAAAAAAAAAAAAAAAAAAAAAAAAAAA111
AAAAAAAAAAAAAAAAAAAAAAAAAAAAAAAAAAAAAAAAAAAAAAAAAAAAAAAAAAAAAA11
AAAAAAAAAAAAAAAAAAAAAAAAAAAAAAAAAAAAAAAAAAAAAAAAAAAAAAAAAAAAAAA1
AAAAAAAAAAAAAAAAAAAAAAAAAAAAAAAAAAAAAAAAAAAAAAAAAAAAAAAAAAAAAAAA
IA1111111IIIIIIIIIIIIIIIIIIIIIIIIIIIIIIIIIIIIIIIIIIIIIIIIIIIIIII
IAA1111111IIIIIIIIIIIIIIIIIIIIIIIIIIIIIIIIIIIIIIIIIIIIIIIIIIIIII
IAAA1111111IIIIIIIIIIIIIIIIIIIIIIIIIIIIIIIIIIIIIIIIIIIIIIIIIIIII
IAAAA1111111IIIIIIIIIIIIIIIIIIIIIIIIIIIIIIIIIIIIIIIIIIIIIIIIIIII
IAAAAA1111111IIIIIIIIIIIIIIIIIIIIIIIIIIIIIIIIIIIIIIIIIIIIIIIIIII
IAAAAAA1111111IIIIIIIIIIIIIIIIIIIIIIIIIIIIIIIIIIIIIIIIIIIIIIIIII
IAAAAAAA1111111IIIIIIIIIIIIIIIIIIIIIIIIIIIIIIIIIIIIIIIIIIIIIIIII
IAAAAAAAA1111111IIIIIIIIIIIIIIIIIIIIIIIIIIIIIIIIIIIIIIIIIIIIIIII
[...]
AAAAAAAAAAAAAAAAAAAAAAAAAAAAAAAAAAAAAAAAAAAAAAAAAAAAAAAAAAAAA111
AAAAAAAAAAAAAAAAAAAAAAAAAAAAAAAAAAAAAAAAAAAAAAAAAAAAAAAAAAAAAA11
AAAAAAAAAAAAAAAAAAAAAAAAAAAAAAAAAAAAAAAAAAAAAAAAAAAAAAAAAAAAAAA1
AAAAAAAAAAAAAAAAAAAAAAAAAAAAAAAAAAAAAAAAAAAAAAAAAAAAAAAAAAAAAAAA
[MLOP] Prefetch Degree Mean: 5.97063
[MLOP] Prefetch Degree SD: 1.36881
[MLOP] Max Score Left Mean (%): 89.0081
[MLOP] Max Score Left SD (%): 16.0447
[MLOP] Max Score Right Mean (%): 97.2406
[MLOP] Max Score Right SD (%): 5.75774
=== CPU 3 L1D Prefetcher Statistics ===
[MLOP] History of tracked zone:
IIIIIIIIIIIIIIIIIIIIIIIIIIIIIIIIIIIIIIIIIIIIIIIIIIIIIIIIIIIIIIII
A11IIIIIIIIIIIIIIIIIIIIIIIIIIIIIIIIIIIIIIIIIIIIIIIIIIIIIIIIIIIII
AA11IIIIIIIIIIIIIIIIIIIIIIIIIIIIIIIIIIIIIIIIIIIIIIIIIIIIIIIIIIII
AAA11IIIIIIIIIIIIIIIIIIIIIIIIIIIIIIIIIIIIIIIIIIIIIIIIIIIIIIIIIII
AAAA11IIIIIIIIIIIIIIIIIIIIIIIIIIIIIIIIIIIIIIIIIIIIIIIIIIIIIIIIII
AAAAA11IIIIIIIIIIIIIIIIIIIIIIIIIIIIIIIIIIIIIIIIIIIIIIIIIIIIIIIII
AAAAAA11IIIIIIIIIIIIIIIIIIIIIIIIIIIIIIIIIIIIIIIIIIIIIIIIIIIIIIII
AAAAAAA11IIIIIIIIIIIIIIIIIIIIIIIIIIIIIIIIIIIIIIIIIIIIIIIIIIIIIII
AAAAAAAA11IIIIIIIIIIIIIIIIIIIIIIIIIIIIIIIIIIIIIIIIIIIIIIIIIIIIII
AAAAAAAAA11IIIIIIIIIIIIIIIIIIIIIIIIIIIIIIIIIIIIIIIIIIIIIIIIIIIII
AAAAAAAAAA11IIIIIIIIIIIIIIIIIIIIIIIIIIIIIIIIIIIIIIIIIIIIIIIIIIII
AAAAAAAAAAA11IIIIIIIIIIIIIIIIIIIIIIIIIIIIIIIIIIIIIIIIIIIIIIIIIII
AAAAAAAAAAAA11IIIIIIIIIIIIIIIIIIIIIIIIIIIIIIIIIIIIIIIIIIIIIIIIII
AAAAAAAAAAAAA11IIIIIIIIIIIIIIIIIIIIIIIIIIIIIIIIIIIIIIIIIIIIIIIII
AAAAAAAAAAAAAA11IIIIIIIIIIIIIIIIIIIIIIIIIIIIIIIIIIIIIIIIIIIIIIII
AAAAAAAAAAAAAAA11IIIIIIIIIIIIIIIIIIIIIIIIIIIIIIIIIIIIIIIIIIIIIII
AAAAAAAAAAAAAAAA11IIIIIIIIIIIIIIIIIIIIIIIIIIIIIIIIIIIIIIIIIIIIII
AAAAAAAAAAAAAAAAA11IIIIIIIIIIIIIIIIIIIIIIIIIIIIIIIIIIIIIIIIIIIII
AAAAAAAAAAAAAAAAAA11IIIIIIIIIIIIIIIIIIIIIIIIIIIIIIIIIIIIIIIIIIII
AAAAAAAAAAAAAAAAAAA11IIIIIIIIIIIIIIIIIIIIIIIIIIIIIIIIIIIIIIIIIII
AAAAAAAAAAAAAAAAAAAA11IIIIIIIIIIIIIIIIIIIIIIIIIIIIIIIIIIIIIIIIII
AAAAAAAAAAAAAAAAAAAAA11IIIIIIIIIIIIIIIIIIIIIIIIIIIIIIIIIIIIIIIII
AAAAAAAAAAAAAAAAAAAAAA11IIIIIIIIIIIIIIIIIIIIIIIIIIIIIIIIIIIIIIII
AAAAAAAAAAAAAAAAAAAAAAA11IIIIIIIIIIIIIIIIIIIIIIIIIIIIIIIIIIIIIII
AAAAAAAAAAAAAAAAAAAAAAAA11IIIIIIIIIIIIIIIIIIIIIIIIIIIIIIIIIIIIII
AAAAAAAAAAAAAAAAAAAAAAAAA11IIIIIIIIIIIIIIIIIIIIIIIIIIIIIIIIIIIII
AAAAAAAAAAAAAAAAAAAAAAAAAA11IIIIIIIIIIIIIIIIIIIIIIIIIIIIIIIIIIII
AAAAAAAAAAAAAAAAAAAAAAAAAAA11IIIIIIIIIIIIIIIIIIIIIIIIIIIIIIIIIII
AAAAAAAAAAAAAAAAAAAAAAAAAAAA11IIIIIIIIIIIIIIIIIIIIIIIIIIIIIIIIII
AAAAAAAAAAAAAAAAAAAAAAAAAAAAA11IIIIIIIIIIIIIIIIIIIIIIIIIIIIIIIII
AAAAAAAAAAAAAAAAAAAAAAAAAAAAAA11IIIIIIIIIIIIIIIIIIIIIIIIIIIIIIII
AAAAAAAAAAAAAAAAAAAAAAAAAAAAAAA11IIIIIIIIIIIIIIIIIIIIIIIIIIIIIII
AAAAAAAAAAAAAAAAAAAAAAAAAAAAAAAA11IIIIIIIIIIIIIIIIIIIIIIIIIIIIII
AAAAAAAAAAAAAAAAAAAAAAAAAAAAAAAAA11IIIIIIIIIIIIIIIIIIIIIIIIIIIII
AAAAAAAAAAAAAAAAAAAAAAAAAAAAAAAAAA11IIIIIIIIIIIIIIIIIIIIIIIIIIII
AAAAAAAAAAAAAAAAAAAAAAAAAAAAAAAAAAA11IIIIIIIIIIIIIIIIIIIIIIIIIII
AAAAAAAAAAAAAAAAAAAAAAAAAAAAAAAAAAAA11IIIIIIIIIIIIIIIIIIIIIIIIII
AAAAAAAAAAAAAAAAAAAAAAAAAAAAAAAAAAAAA11IIIIIIIIIIIIIIIIIIIIIIIII
AAAAAAAAAAAAAAAAAAAAAAAAAAAAAAAAAAAAAA11IIIIIIIIIIIIIIIIIIIIIIII
AAAAAAAAAAAAAAAAAAAAAAAAAAAAAAAAAAAAAAA11IIIIIIIIIIIIIIIIIIIIIII
AAAAAAAAAAAAAAAAAAAAAAAAAAAAAAAAAAAAAAAA11IIIIIIIIIIIIIIIIIIIIII
AAAAAAAAAAAAAAAAAAAAAAAAAAAAAAAAAAAAAAAAA11IIIIIIIIIIIIIIIIIIIII
AAAAAAAAAAAAAAAAAAAAAAAAAAAAAAAAAAAAAAAAAA11IIIIIIIIIIIIIIIIIIII
AAAAAAAAAAAAAAAAAAAAAAAAAAAAAAAAAAAAAAAAAAA11IIIIIIIIIIIIIIIIIII
AAAAAAAAAAAAAAAAAAAAAAAAAAAAAAAAAAAAAAAAAAAA11IIIIIIIIIIIIIIIIII
AAAAAAAAAAAAAAAAAAAAAAAAAAAAAAAAAAAAAAAAAAAAA11IIIIIIIIIIIIIIIII
AAAAAAAAAAAAAAAAAAAAAAAAAAAAAAAAAAAAAAAAAAAAAA11IIIIIIIIIIIIIIII
AAAAAAAAAAAAAAAAAAAAAAAAAAAAAAAAAAAAAAAAAAAAAAA11IIIIIIIIIIIIIII
AAAAAAAAAAAAAAAAAAAAAAAAAAAAAAAAAAAAAAAAAAAAAAAA11IIIIIIIIIIIIII
AAAAAAAAAAAAAAAAAAAAAAAAAAAAAAAAAAAAAAAAAAAAAAAAA11IIIIIIIIIIIII
AAAAAAAAAAAAAAAAAAAAAAAAAAAAAAAAAAAAAAAAAAAAAAAAAA11IIIIIIIIIIII
AAAAAAAAAAAAAAAAAAAAAAAAAAAAAAAAAAAAAAAAAAAAAAAAAAA11IIIIIIIIIII
AAAAAAAAAAAAAAAAAAAAAAAAAAAAAAAAAAAAAAAAAAAAAAAAAAAA11IIIIIIIIII
AAAAAAAAAAAAAAAAAAAAAAAAAAAAAAAAAAAAAAAAAAAAAAAAAAAAA11IIIIIIIII
AAAAAAAAAAAAAAAAAAAAAAAAAAAAAAAAAAAAAAAAAAAAAAAAAAAAAA11IIIIIIII
AAAAAAAAAAAAAAAAAAAAAAAAAAAAAAAAAAAAAAAAAAAAAAAAAAAAAAA11IIIIIII
AAAAAAAAAAAAAAAAAAAAAAAAAAAAAAAAAAAAAAAAAAAAAAAAAAAAAAAA11IIIIII
AAAAAAAAAAAAAAAAAAAAAAAAAAAAAAAAAAAAAAAAAAAAAAAAAAAAAAAAA11IIIII
AAAAAAAAAAAAAAAAAAAAAAAAAAAAAAAAAAAAAAAAAAAAAAAAAAAAAAAAAA11IIII
AAAAAAAAAAAAAAAAAAAAAAAAAAAAAAAAAAAAAAAAAAAAAAAAAAAAAAAAAAA11III
AAAAAAAAAAAAAAAAAAAAAAAAAAAAAAAAAAAAAAAAAAAAAAAAAAAAAAAAAAAA11II
AAAAAAAAAAAAAAAAAAAAAAAAAAAAAAAAAAAAAAAAAAAAAAAAAAAAAAAAAAAAA11I
AAAAAAAAAAAAAAAAAAAAAAAAAAAAAAAAAAAAAAAAAAAAAAAAAAAAAAAAAAAAAA11
AAAAAAAAAAAAAAAAAAAAAAAAAAAAAAAAAAAAAAAAAAAAAAAAAAAAAAAAAAAAAAA1
AAAAAAAAAAAAAAAAAAAAAAAAAAAAAAAAAAAAAAAAAAAAAAAAAAAAAAAAAAAAAAAA
A11IIIIIIIIIIIIIIIIIIIIIIIIIIIIIIIIIIIIIIIIIIIIIIIIIIIIIIIIIIIII
AA11IIIIIIIIIIIIIIIIIIIIIIIIIIIIIIIIIIIIIIIIIIIIIIIIIIIIIIIIIIII
AAA11IIIIIIIIIIIIIIIIIIIIIIIIIIIIIIIIIIIIIIIIIIIIIIIIIIIIIIIIIII
AAAA11IIIIIIIIIIIIIIIIIIIIIIIIIIIIIIIIIIIIIIIIIIIIIIIIIIIIIIIIII
AAAAA11IIIIIIIIIIIIIIIIIIIIIIIIIIIIIIIIIIIIIIIIIIIIIIIIIIIIIIIII
AAAAAA11IIIIIIIIIIIIIIIIIIIIIIIIIIIIIIIIIIIIIIIIIIIIIIIIIIIIIIII
AAAAAAA11IIIIIIIIIIIIIIIIIIIIIIIIIIIIIIIIIIIIIIIIIIIIIIIIIIIIIII
AAAAAAAA11IIIIIIIIIIIIIIIIIIIIIIIIIIIIIIIIIIIIIIIIIIIIIIIIIIIIII
AAAAAAAAA11IIIIIIIIIIIIIIIIIIIIIIIIIIIIIIIIIIIIIIIIIIIIIIIIIIIII
AAAAAAAAAA11IIIIIIIIIIIIIIIIIIIIIIIIIIIIIIIIIIIIIIIIIIIIIIIIIIII
AAAAAAAAAAA11IIIIIIIIIIIIIIIIIIIIIIIIIIIIIIIIIIIIIIIIIIIIIIIIIII
AAAAAAAAAAAA11IIIIIIIIIIIIIIIIIIIIIIIIIIIIIIIIIIIIIIIIIIIIIIIIII
AAAAAAAAAAAAA11IIIIIIIIIIIIIIIIIIIIIIIIIIIIIIIIIIIIIIIIIIIIIIIII
AAAAAAAAAAAAAA11IIIIIIIIIIIIIIIIIIIIIIIIIIIIIIIIIIIIIIIIIIIIIIII
AAAAAAAAAAAAAAA11IIIIIIIIIIIIIIIIIIIIIIIIIIIIIIIIIIIIIIIIIIIIIII
AAAAAAAAAAAAAAAA11IIIIIIIIIIIIIIIIIIIIIIIIIIIIIIIIIIIIIIIIIIIIII
AAAAAAAAAAAAAAAAA11IIIIIIIIIIIIIIIIIIIIIIIIIIIIIIIIIIIIIIIIIIIII
AAAAAAAAAAAAAAAAAA11IIIIIIIIIIIIIIIIIIIIIIIIIIIIIIIIIIIIIIIIIIII
AAAAAAAAAAAAAAAAAAA11IIIIIIIIIIIIIIIIIIIIIIIIIIIIIIIIIIIIIIIIIII
AAAAAAAAAAAAAAAAAAAA11IIIIIIIIIIIIIIIIIIIIIIIIIIIIIIIIIIIIIIIIII
AAAAAAAAAAAAAAAAAAAAA11IIIIIIIIIIIIIIIIIIIIIIIIIIIIIIIIIIIIIIIII
AAAAAAAAAAAAAAAAAAAAAA11IIIIIIIIIIIIIIIIIIIIIIIIIIIIIIIIIIIIIIII
AAAAAAAAAAAAAAAAAAAAAAA11IIIIIIIIIIIIIIIIIIIIIIIIIIIIIIIIIIIIIII
AAAAAAAAAAAAAAAAAAAAAAAA11IIIIIIIIIIIIIIIIIIIIIIIIIIIIIIIIIIIIII
AAAAAAAAAAAAAAAAAAAAAAAAA11IIIIIIIIIIIIIIIIIIIIIIIIIIIIIIIIIIIII
AAAAAAAAAAAAAAAAAAAAAAAAAA11IIIIIIIIIIIIIIIIIIIIIIIIIIIIIIIIIIII
AAAAAAAAAAAAAAAAAAAAAAAAAAA11IIIIIIIIIIIIIIIIIIIIIIIIIIIIIIIIIII
AAAAAAAAAAAAAAAAAAAAAAAAAAAA11IIIIIIIIIIIIIIIIIIIIIIIIIIIIIIIIII
AAAAAAAAAAAAAAAAAAAAAAAAAAAAA11IIIIIIIIIIIIIIIIIIIIIIIIIIIIIIIII
AAAAAAAAAAAAAAAAAAAAAAAAAAAAAA11IIIIIIIIIIIIIIIIIIIIIIIIIIIIIIII
AAAAAAAAAAAAAAAAAAAAAAAAAAAAAAA11IIIIIIIIIIIIIIIIIIIIIIIIIIIIIII
AAAAAAAAAAAAAAAAAAAAAAAAAAAAAAAA11IIIIIIIIIIIIIIIIIIIIIIIIIIIIII
AAAAAAAAAAAAAAAAAAAAAAAAAAAAAAAAA11IIIIIIIIIIIIIIIIIIIIIIIIIIIII
AAAAAAAAAAAAAAAAAAAAAAAAAAAAAAAAAA11IIIIIIIIIIIIIIIIIIIIIIIIIIII
AAAAAAAAAAAAAAAAAAAAAAAAAAAAAAAAAAA11IIIIIIIIIIIIIIIIIIIIIIIIIII
AAAAAAAAAAAAAAAAAAAAAAAAAAAAAAAAAAAA11IIIIIIIIIIIIIIIIIIIIIIIIII
AAAAAAAAAAAAAAAAAAAAAAAAAAAAAAAAAAAAA11IIIIIIIIIIIIIIIIIIIIIIIII
AAAAAAAAAAAAAAAAAAAAAAAAAAAAAAAAAAAAAA11IIIIIIIIIIIIIIIIIIIIIIII
AAAAAAAAAAAAAAAAAAAAAAAAAAAAAAAAAAAAAAA11IIIIIIIIIIIIIIIIIIIIIII
AAAAAAAAAAAAAAAAAAAAAAAAAAAAAAAAAAAAAAAA11IIIIIIIIIIIIIIIIIIIIII
AAAAAAAAAAAAAAAAAAAAAAAAAAAAAAAAAAAAAAAAA11IIIIIIIIIIIIIIIIIIIII
AAAAAAAAAAAAAAAAAAAAAAAAAAAAAAAAAAAAAAAAAA11IIIIIIIIIIIIIIIIIIII
AAAAAAAAAAAAAAAAAAAAAAAAAAAAAAAAAAAAAAAAAAA11IIIIIIIIIIIIIIIIIII
AAAAAAAAAAAAAAAAAAAAAAAAAAAAAAAAAAAAAAAAAAAA11IIIIIIIIIIIIIIIIII
AAAAAAAAAAAAAAAAAAAAAAAAAAAAAAAAAAAAAAAAAAAAA11IIIIIIIIIIIIIIIII
AAAAAAAAAAAAAAAAAAAAAAAAAAAAAAAAAAAAAAAAAAAAAA11IIIIIIIIIIIIIIII
AAAAAAAAAAAAAAAAAAAAAAAAAAAAAAAAAAAAAAAAAAAAAAA11IIIIIIIIIIIIIII
AAAAAAAAAAAAAAAAAAAAAAAAAAAAAAAAAAAAAAAAAAAAAAAA11IIIIIIIIIIIIII
AAAAAAAAAAAAAAAAAAAAAAAAAAAAAAAAAAAAAAAAAAAAAAAAA11IIIIIIIIIIIII
AAAAAAAAAAAAAAAAAAAAAAAAAAAAAAAAAAAAAAAAAAAAAAAAAA11IIIIIIIIIIII
AAAAAAAAAAAAAAAAAAAAAAAAAAAAAAAAAAAAAAAAAAAAAAAAAAA11IIIIIIIIIII
AAAAAAAAAAAAAAAAAAAAAAAAAAAAAAAAAAAAAAAAAAAAAAAAAAAA11IIIIIIIIII
AAAAAAAAAAAAAAAAAAAAAAAAAAAAAAAAAAAAAAAAAAAAAAAAAAAAA11IIIIIIIII
AAAAAAAAAAAAAAAAAAAAAAAAAAAAAAAAAAAAAAAAAAAAAAAAAAAAAA11IIIIIIII
AAAAAAAAAAAAAAAAAAAAAAAAAAAAAAAAAAAAAAAAAAAAAAAAAAAAAAA11IIIIIII
AAAAAAAAAAAAAAAAAAAAAAAAAAAAAAAAAAAAAAAAAAAAAAAAAAAAAAAA11IIIIII
AAAAAAAAAAAAAAAAAAAAAAAAAAAAAAAAAAAAAAAAAAAAAAAAAAAAAAAAA11IIIII
AAAAAAAAAAAAAAAAAAAAAAAAAAAAAAAAAAAAAAAAAAAAAAAAAAAAAAAAAA11IIII
AAAAAAAAAAAAAAAAAAAAAAAAAAAAAAAAAAAAAAAAAAAAAAAAAAAAAAAAAAA11III
AAAAAAAAAAAAAAAAAAAAAAAAAAAAAAAAAAAAAAAAAAAAAAAAAAAAAAAAAAAA11II
AAAAAAAAAAAAAAAAAAAAAAAAAAAAAAAAAAAAAAAAAAAAAAAAAAAAAAAAAAAAA11I
AAAAAAAAAAAAAAAAAAAAAAAAAAAAAAAAAAAAAAAAAAAAAAAAAAAAAAAAAAAAAA11
AAAAAAAAAAAAAAAAAAAAAAAAAAAAAAAAAAAAAAAAAAAAAAAAAAAAAAAAAAAAAAA1
AAAAAAAAAAAAAAAAAAAAAAAAAAAAAAAAAAAAAAAAAAAAAAAAAAAAAAAAAAAAAAAA
A11IIIIIIIIIIIIIIIIIIIIIIIIIIIIIIIIIIIIIIIIIIIIIIIIIIIIIIIIIIIII
AA11IIIIIIIIIIIIIIIIIIIIIIIIIIIIIIIIIIIIIIIIIIIIIIIIIIIIIIIIIIII
AAA11IIIIIIIIIIIIIIIIIIIIIIIIIIIIIIIIIIIIIIIIIIIIIIIIIIIIIIIIIII
AAAA11IIIIIIIIIIIIIIIIIIIIIIIIIIIIIIIIIIIIIIIIIIIIIIIIIIIIIIIIII
AAAAA11IIIIIIIIIIIIIIIIIIIIIIIIIIIIIIIIIIIIIIIIIIIIIIIIIIIIIIIII
AAAAAA11IIIIIIIIIIIIIIIIIIIIIIIIIIIIIIIIIIIIIIIIIIIIIIIIIIIIIIII
AAAAAAA11IIIIIIIIIIIIIIIIIIIIIIIIIIIIIIIIIIIIIIIIIIIIIIIIIIIIIII
AAAAAAAA11IIIIIIIIIIIIIIIIIIIIIIIIIIIIIIIIIIIIIIIIIIIIIIIIIIIIII
AAAAAAAAA11IIIIIIIIIIIIIIIIIIIIIIIIIIIIIIIIIIIIIIIIIIIIIIIIIIIII
AAAAAAAAAA11IIIIIIIIIIIIIIIIIIIIIIIIIIIIIIIIIIIIIIIIIIIIIIIIIIII
AAAAAAAAAAA11IIIIIIIIIIIIIIIIIIIIIIIIIIIIIIIIIIIIIIIIIIIIIIIIIII
AAAAAAAAAAAA11IIIIIIIIIIIIIIIIIIIIIIIIIIIIIIIIIIIIIIIIIIIIIIIIII
AAAAAAAAAAAAA11IIIIIIIIIIIIIIIIIIIIIIIIIIIIIIIIIIIIIIIIIIIIIIIII
AAAAAAAAAAAAAA11IIIIIIIIIIIIIIIIIIIIIIIIIIIIIIIIIIIIIIIIIIIIIIII
AAAAAAAAAAAAAAA11IIIIIIIIIIIIIIIIIIIIIIIIIIIIIIIIIIIIIIIIIIIIIII
AAAAAAAAAAAAAAAA11IIIIIIIIIIIIIIIIIIIIIIIIIIIIIIIIIIIIIIIIIIIIII
AAAAAAAAAAAAAAAAA11IIIIIIIIIIIIIIIIIIIIIIIIIIIIIIIIIIIIIIIIIIIII
AAAAAAAAAAAAAAAAAA11IIIIIIIIIIIIIIIIIIIIIIIIIIIIIIIIIIIIIIIIIIII
AAAAAAAAAAAAAAAAAAA11IIIIIIIIIIIIIIIIIIIIIIIIIIIIIIIIIIIIIIIIIII
AAAAAAAAAAAAAAAAAAAA11IIIIIIIIIIIIIIIIIIIIIIIIIIIIIIIIIIIIIIIIII
AAAAAAAAAAAAAAAAAAAAA11IIIIIIIIIIIIIIIIIIIIIIIIIIIIIIIIIIIIIIIII
AAAAAAAAAAAAAAAAAAAAAA11IIIIIIIIIIIIIIIIIIIIIIIIIIIIIIIIIIIIIIII
AAAAAAAAAAAAAAAAAAAAAAA11IIIIIIIIIIIIIIIIIIIIIIIIIIIIIIIIIIIIIII
AAAAAAAAAAAAAAAAAAAAAAAA11IIIIIIIIIIIIIIIIIIIIIIIIIIIIIIIIIIIIII
AAAAAAAAAAAAAAAAAAAAAAAAA11IIIIIIIIIIIIIIIIIIIIIIIIIIIIIIIIIIIII
AAAAAAAAAAAAAAAAAAAAAAAAAA11IIIIIIIIIIIIIIIIIIIIIIIIIIIIIIIIIIII
AAAAAAAAAAAAAAAAAAAAAAAAAAA11IIIIIIIIIIIIIIIIIIIIIIIIIIIIIIIIIII
AAAAAAAAAAAAAAAAAAAAAAAAAAAA11IIIIIIIIIIIIIIIIIIIIIIIIIIIIIIIIII
AAAAAAAAAAAAAAAAAAAAAAAAAAAAA11IIIIIIIIIIIIIIIIIIIIIIIIIIIIIIIII
AAAAAAAAAAAAAAAAAAAAAAAAAAAAAA11IIIIIIIIIIIIIIIIIIIIIIIIIIIIIIII
AAAAAAAAAAAAAAAAAAAAAAAAAAAAAAA11IIIIIIIIIIIIIIIIIIIIIIIIIIIIIII
AAAAAAAAAAAAAAAAAAAAAAAAAAAAAAAA11IIIIIIIIIIIIIIIIIIIIIIIIIIIIII
AAAAAAAAAAAAAAAAAAAAAAAAAAAAAAAAA11IIIIIIIIIIIIIIIIIIIIIIIIIIIII
AAAAAAAAAAAAAAAAAAAAAAAAAAAAAAAAAA11IIIIIIIIIIIIIIIIIIIIIIIIIIII
AAAAAAAAAAAAAAAAAAAAAAAAAAAAAAAAAAA11IIIIIIIIIIIIIIIIIIIIIIIIIII
AAAAAAAAAAAAAAAAAAAAAAAAAAAAAAAAAAAA11IIIIIIIIIIIIIIIIIIIIIIIIII
AAAAAAAAAAAAAAAAAAAAAAAAAAAAAAAAAAAAA11IIIIIIIIIIIIIIIIIIIIIIIII
AAAAAAAAAAAAAAAAAAAAAAAAAAAAAAAAAAAAAA11IIIIIIIIIIIIIIIIIIIIIIII
AAAAAAAAAAAAAAAAAAAAAAAAAAAAAAAAAAAAAAA11IIIIIIIIIIIIIIIIIIIIIII
AAAAAAAAAAAAAAAAAAAAAAAAAAAAAAAAAAAAAAAA11IIIIIIIIIIIIIIIIIIIIII
AAAAAAAAAAAAAAAAAAAAAAAAAAAAAAAAAAAAAAAAA11IIIIIIIIIIIIIIIIIIIII
AAAAAAAAAAAAAAAAAAAAAAAAAAAAAAAAAAAAAAAAAA11IIIIIIIIIIIIIIIIIIII
AAAAAAAAAAAAAAAAAAAAAAAAAAAAAAAAAAAAAAAAAAA11IIIIIIIIIIIIIIIIIII
AAAAAAAAAAAAAAAAAAAAAAAAAAAAAAAAAAAAAAAAAAAA11IIIIIIIIIIIIIIIIII
AAAAAAAAAAAAAAAAAAAAAAAAAAAAAAAAAAAAAAAAAAAAA11IIIIIIIIIIIIIIIII
AAAAAAAAAAAAAAAAAAAAAAAAAAAAAAAAAAAAAAAAAAAAAA11IIIIIIIIIIIIIIII
AAAAAAAAAAAAAAAAAAAAAAAAAAAAAAAAAAAAAAAAAAAAAAA11IIIIIIIIIIIIIII
AAAAAAAAAAAAAAAAAAAAAAAAAAAAAAAAAAAAAAAAAAAAAAAA11IIIIIIIIIIIIII
AAAAAAAAAAAAAAAAAAAAAAAAAAAAAAAAAAAAAAAAAAAAAAAAA11IIIIIIIIIIIII
AAAAAAAAAAAAAAAAAAAAAAAAAAAAAAAAAAAAAAAAAAAAAAAAAA11IIIIIIIIIIII
AAAAAAAAAAAAAAAAAAAAAAAAAAAAAAAAAAAAAAAAAAAAAAAAAAA11IIIIIIIIIII
AAAAAAAAAAAAAAAAAAAAAAAAAAAAAAAAAAAAAAAAAAAAAAAAAAAA11IIIIIIIIII
AAAAAAAAAAAAAAAAAAAAAAAAAAAAAAAAAAAAAAAAAAAAAAAAAAAAA11IIIIIIIII
AAAAAAAAAAAAAAAAAAAAAAAAAAAAAAAAAAAAAAAAAAAAAAAAAAAAAA11IIIIIIII
AAAAAAAAAAAAAAAAAAAAAAAAAAAAAAAAAAAAAAAAAAAAAAAAAAAAAAA11IIIIIII
AAAAAAAAAAAAAAAAAAAAAAAAAAAAAAAAAAAAAAAAAAAAAAAAAAAAAAAA11IIIIII
AAAAAAAAAAAAAAAAAAAAAAAAAAAAAAAAAAAAAAAAAAAAAAAAAAAAAAAAA11IIIII
AAAAAAAAAAAAAAAAAAAAAAAAAAAAAAAAAAAAAAAAAAAAAAAAAAAAAAAAAA11IIII
AAAAAAAAAAAAAAAAAAAAAAAAAAAAAAAAAAAAAAAAAAAAAAAAAAAAAAAAAAA11III
AAAAAAAAAAAAAAAAAAAAAAAAAAAAAAAAAAAAAAAAAAAAAAAAAAAAAAAAAAAA11II
AAAAAAAAAAAAAAAAAAAAAAAAAAAAAAAAAAAAAAAAAAAAAAAAAAAAAAAAAAAAA11I
AAAAAAAAAAAAAAAAAAAAAAAAAAAAAAAAAAAAAAAAAAAAAAAAAAAAAAAAAAAAAA11
AAAAAAAAAAAAAAAAAAAAAAAAAAAAAAAAAAAAAAAAAAAAAAAAAAAAAAAAAAAAAAA1
AAAAAAAAAAAAAAAAAAAAAAAAAAAAAAAAAAAAAAAAAAAAAAAAAAAAAAAAAAAAAAAA
A111IIIIIIIIIIIIIIIIIIIIIIIIIIIIIIIIIIIIIIIIIIIIIIIIIIIIIIIIIIII
AA111IIIIIIIIIIIIIIIIIIIIIIIIIIIIIIIIIIIIIIIIIIIIIIIIIIIIIIIIIII
AAA111IIIIIIIIIIIIIIIIIIIIIIIIIIIIIIIIIIIIIIIIIIIIIIIIIIIIIIIIII
AAAA111IIIIIIIIIIIIIIIIIIIIIIIIIIIIIIIIIIIIIIIIIIIIIIIIIIIIIIIII
AAAAA111IIIIIIIIIIIIIIIIIIIIIIIIIIIIIIIIIIIIIIIIIIIIIIIIIIIIIIII
AAAAAA111IIIIIIIIIIIIIIIIIIIIIIIIIIIIIIIIIIIIIIIIIIIIIIIIIIIIIII
AAAAAAA111IIIIIIIIIIIIIIIIIIIIIIIIIIIIIIIIIIIIIIIIIIIIIIIIIIIIII
AAAAAAAA111IIIIIIIIIIIIIIIIIIIIIIIIIIIIIIIIIIIIIIIIIIIIIIIIIIIII
AAAAAAAAA111IIIIIIIIIIIIIIIIIIIIIIIIIIIIIIIIIIIIIIIIIIIIIIIIIIII
AAAAAAAAAA111IIIIIIIIIIIIIIIIIIIIIIIIIIIIIIIIIIIIIIIIIIIIIIIIIII
AAAAAAAAAAA111IIIIIIIIIIIIIIIIIIIIIIIIIIIIIIIIIIIIIIIIIIIIIIIIII
AAAAAAAAAAAA111IIIIIIIIIIIIIIIIIIIIIIIIIIIIIIIIIIIIIIIIIIIIIIIII
AAAAAAAAAAAAA111IIIIIIIIIIIIIIIIIIIIIIIIIIIIIIIIIIIIIIIIIIIIIIII
AAAAAAAAAAAAAA111IIIIIIIIIIIIIIIIIIIIIIIIIIIIIIIIIIIIIIIIIIIIIII
AAAAAAAAAAAAAAA111IIIIIIIIIIIIIIIIIIIIIIIIIIIIIIIIIIIIIIIIIIIIII
AAAAAAAAAAAAAAAA111IIIIIIIIIIIIIIIIIIIIIIIIIIIIIIIIIIIIIIIIIIIII
AAAAAAAAAAAAAAAAA111IIIIIIIIIIIIIIIIIIIIIIIIIIIIIIIIIIIIIIIIIIII
AAAAAAAAAAAAAAAAAA111IIIIIIIIIIIIIIIIIIIIIIIIIIIIIIIIIIIIIIIIIII
AAAAAAAAAAAAAAAAAAA111IIIIIIIIIIIIIIIIIIIIIIIIIIIIIIIIIIIIIIIIII
AAAAAAAAAAAAAAAAAAAA111IIIIIIIIIIIIIIIIIIIIIIIIIIIIIIIIIIIIIIIII
AAAAAAAAAAAAAAAAAAAAA111IIIIIIIIIIIIIIIIIIIIIIIIIIIIIIIIIIIIIIII
AAAAAAAAAAAAAAAAAAAAAA111IIIIIIIIIIIIIIIIIIIIIIIIIIIIIIIIIIIIIII
AAAAAAAAAAAAAAAAAAAAAAA111IIIIIIIIIIIIIIIIIIIIIIIIIIIIIIIIIIIIII
AAAAAAAAAAAAAAAAAAAAAAAA111IIIIIIIIIIIIIIIIIIIIIIIIIIIIIIIIIIIII
AAAAAAAAAAAAAAAAAAAAAAAAA111IIIIIIIIIIIIIIIIIIIIIIIIIIIIIIIIIIII
AAAAAAAAAAAAAAAAAAAAAAAAAA111IIIIIIIIIIIIIIIIIIIIIIIIIIIIIIIIIII
AAAAAAAAAAAAAAAAAAAAAAAAAAA111IIIIIIIIIIIIIIIIIIIIIIIIIIIIIIIIII
AAAAAAAAAAAAAAAAAAAAAAAAAAAA111IIIIIIIIIIIIIIIIIIIIIIIIIIIIIIIII
AAAAAAAAAAAAAAAAAAAAAAAAAAAAA111IIIIIIIIIIIIIIIIIIIIIIIIIIIIIIII
AAAAAAAAAAAAAAAAAAAAAAAAAAAAAA111IIIIIIIIIIIIIIIIIIIIIIIIIIIIIII
AAAAAAAAAAAAAAAAAAAAAAAAAAAAAAA111IIIIIIIIIIIIIIIIIIIIIIIIIIIIII
AAAAAAAAAAAAAAAAAAAAAAAAAAAAAAAA111IIIIIIIIIIIIIIIIIIIIIIIIIIIII
AAAAAAAAAAAAAAAAAAAAAAAAAAAAAAAAA111IIIIIIIIIIIIIIIIIIIIIIIIIIII
AAAAAAAAAAAAAAAAAAAAAAAAAAAAAAAAAA111IIIIIIIIIIIIIIIIIIIIIIIIIII
AAAAAAAAAAAAAAAAAAAAAAAAAAAAAAAAAAA111IIIIIIIIIIIIIIIIIIIIIIIIII
AAAAAAAAAAAAAAAAAAAAAAAAAAAAAAAAAAAA111IIIIIIIIIIIIIIIIIIIIIIIII
AAAAAAAAAAAAAAAAAAAAAAAAAAAAAAAAAAAAA111IIIIIIIIIIIIIIIIIIIIIIII
AAAAAAAAAAAAAAAAAAAAAAAAAAAAAAAAAAAAAA111IIIIIIIIIIIIIIIIIIIIIII
AAAAAAAAAAAAAAAAAAAAAAAAAAAAAAAAAAAAAAA111IIIIIIIIIIIIIIIIIIIIII
AAAAAAAAAAAAAAAAAAAAAAAAAAAAAAAAAAAAAAAA111IIIIIIIIIIIIIIIIIIIII
AAAAAAAAAAAAAAAAAAAAAAAAAAAAAAAAAAAAAAAAA111IIIIIIIIIIIIIIIIIIII
AAAAAAAAAAAAAAAAAAAAAAAAAAAAAAAAAAAAAAAAAA111IIIIIIIIIIIIIIIIIII
AAAAAAAAAAAAAAAAAAAAAAAAAAAAAAAAAAAAAAAAAAA111IIIIIIIIIIIIIIIIII
AAAAAAAAAAAAAAAAAAAAAAAAAAAAAAAAAAAAAAAAAAAA111IIIIIIIIIIIIIIIII
AAAAAAAAAAAAAAAAAAAAAAAAAAAAAAAAAAAAAAAAAAAAA111IIIIIIIIIIIIIIII
AAAAAAAAAAAAAAAAAAAAAAAAAAAAAAAAAAAAAAAAAAAAAA111IIIIIIIIIIIIIII
AAAAAAAAAAAAAAAAAAAAAAAAAAAAAAAAAAAAAAAAAAAAAAA111IIIIIIIIIIIIII
AAAAAAAAAAAAAAAAAAAAAAAAAAAAAAAAAAAAAAAAAAAAAAAA111IIIIIIIIIIIII
AAAAAAAAAAAAAAAAAAAAAAAAAAAAAAAAAAAAAAAAAAAAAAAAA111IIIIIIIIIIII
AAAAAAAAAAAAAAAAAAAAAAAAAAAAAAAAAAAAAAAAAAAAAAAAAA111IIIIIIIIIII
AAAAAAAAAAAAAAAAAAAAAAAAAAAAAAAAAAAAAAAAAAAAAAAAAAA111IIIIIIIIII
AAAAAAAAAAAAAAAAAAAAAAAAAAAAAAAAAAAAAAAAAAAAAAAAAAAA111IIIIIIIII
AAAAAAAAAAAAAAAAAAAAAAAAAAAAAAAAAAAAAAAAAAAAAAAAAAAAA111IIIIIIII
AAAAAAAAAAAAAAAAAAAAAAAAAAAAAAAAAAAAAAAAAAAAAAAAAAAAAA111IIIIIII
AAAAAAAAAAAAAAAAAAAAAAAAAAAAAAAAAAAAAAAAAAAAAAAAAAAAAAA111IIIIII
AAAAAAAAAAAAAAAAAAAAAAAAAAAAAAAAAAAAAAAAAAAAAAAAAAAAAAAA111IIIII
AAAAAAAAAAAAAAAAAAAAAAAAAAAAAAAAAAAAAAAAAAAAAAAAAAAAAAAAA111IIII
AAAAAAAAAAAAAAAAAAAAAAAAAAAAAAAAAAAAAAAAAAAAAAAAAAAAAAAAAA111III
AAAAAAAAAAAAAAAAAAAAAAAAAAAAAAAAAAAAAAAAAAAAAAAAAAAAAAAAAAA111II
AAAAAAAAAAAAAAAAAAAAAAAAAAAAAAAAAAAAAAAAAAAAAAAAAAAAAAAAAAAA111I
AAAAAAAAAAAAAAAAAAAAAAAAAAAAAAAAAAAAAAAAAAAAAAAAAAAAAAAAAAAAA111
AAAAAAAAAAAAAAAAAAAAAAAAAAAAAAAAAAAAAAAAAAAAAAAAAAAAAAAAAAAAAA11
AAAAAAAAAAAAAAAAAAAAAAAAAAAAAAAAAAAAAAAAAAAAAAAAAAAAAAAAAAAAAAA1
AAAAAAAAAAAAAAAAAAAAAAAAAAAAAAAAAAAAAAAAAAAAAAAAAAAAAAAAAAAAAAAA
[MLOP] Prefetch Degree Mean: 2.02899
[MLOP] Prefetch Degree SD: 0.167766
[MLOP] Max Score Left Mean (%): 95.9391
[MLOP] Max Score Left SD (%): 3.37447
[MLOP] Max Score Right Mean (%): 100
[MLOP] Max Score Right SD (%): 0

DRAM Statistics
 CHANNEL 0
 RQ ROW_BUFFER_HIT:    1656563  ROW_BUFFER_MISS:   13703181
 DBUS_CONGESTED:        235
 WQ ROW_BUFFER_HIT:     429753  ROW_BUFFER_MISS:    4479744  FULL:          0

 AVG_CONGESTED_CYCLE: 5
 All warmup complete: 5
Channel 0 Bank busy for read cycles: 0
Channel 0 Bank busy for write cycles: 0
Channel 0
Rank 0
0banks busy for read cycles: 458575
0banks busy for write cycles: 1001
1banks busy for read cycles: 34254299
1banks busy for write cycles: 778518
2banks busy for read cycles: 71643883
2banks busy for write cycles: 741550
3banks busy for read cycles: 90751492
3banks busy for write cycles: 712341
4banks busy for read cycles: 85662367
4banks busy for write cycles: 697907
5banks busy for read cycles: 71664998
5banks busy for write cycles: 729803
6banks busy for read cycles: 59310975
6banks busy for write cycles: 1366712
7banks busy for read cycles: 51493873
7banks busy for write cycles: 14946312
8banks busy for read cycles: 48446542
8banks busy for write cycles: 116077065

CPU 0 Branch Prediction Accuracy: 94.5476% MPKI: 15.3266 Average ROB Occupancy at Mispredict: 12.0143
Branch types
NOT_BRANCH: 420816868 71.8905%
BRANCH_DIRECT_JUMP: 14 2.3917e-06%
BRANCH_INDIRECT: 0 0%
BRANCH_CONDITIONAL: 164541238 28.1095%
BRANCH_DIRECT_CALL: 10 1.70836e-06%
BRANCH_INDIRECT_CALL: 2 3.41671e-07%
BRANCH_RETURN: 12 2.05003e-06%
BRANCH_OTHER: 0 0%


CPU 1 Branch Prediction Accuracy: 85.924% MPKI: 30.2867 Average ROB Occupancy at Mispredict: 8.35761
Branch types
NOT_BRANCH: 156086247 78.0431%
BRANCH_DIRECT_JUMP: 5491 0.0027455%
BRANCH_INDIRECT: 3 1.5e-06%
BRANCH_CONDITIONAL: 43907697 21.9538%
BRANCH_DIRECT_CALL: 273 0.0001365%
BRANCH_INDIRECT_CALL: 9 4.5e-06%
BRANCH_RETURN: 282 0.000141%
BRANCH_OTHER: 0 0%


CPU 2 Branch Prediction Accuracy: 99.831% MPKI: 0.0414721 Average ROB Occupancy at Mispredict: 299.421
Branch types
NOT_BRANCH: 909377705 97.5281%
BRANCH_DIRECT_JUMP: 92065 0.00987371%
BRANCH_INDIRECT: 0 0%
BRANCH_CONDITIONAL: 22955619 2.46192%
BRANCH_DIRECT_CALL: 232 2.48813e-05%
BRANCH_INDIRECT_CALL: 0 0%
BRANCH_RETURN: 232 2.48813e-05%
BRANCH_OTHER: 0 0%


CPU 3 Branch Prediction Accuracy: 99.4257% MPKI: 1.31475 Average ROB Occupancy at Mispredict: 35.1599
Branch types
NOT_BRANCH: 566898640 77.108%
BRANCH_DIRECT_JUMP: 0 0%
BRANCH_INDIRECT: 0 0%
BRANCH_CONDITIONAL: 168302382 22.892%
BRANCH_DIRECT_CALL: 0 0%
BRANCH_INDIRECT_CALL: 0 0%
BRANCH_RETURN: 0 0%
BRANCH_OTHER: 0 0%

DRAM PAGES: 1048576
Allocated PAGES: 70818
