
*** ChampSim Multicore Out-of-Order Simulator ***

Warmup Instructions: 50000000
Simulation Instructions: 200000000
Number of CPUs: 4
LLC sets: 8192
LLC ways: 16
Off-chip DRAM Size: 4096 MB Channels: 1 Width: 64-bit Data Rate: 6400 MT/s
CPU 0 runs ./traces/spec/607.cactuBSSN_s-4004B.champsimtrace.xz
.xz
CPU 1 runs ./traces/spec/607.cactuBSSN_s-4004B.champsimtrace.xz
.xz
CPU 2 runs ./traces/spec/607.cactuBSSN_s-4004B.champsimtrace.xz
.xz
CPU 3 runs ./traces/spec/607.cactuBSSN_s-4004B.champsimtrace.xz
.xz
BTB has LRU replacement policy
ITLB has LRU replacement policy
DTLB has LRU replacement policy
STLB has LRU replacement policy
L1I has LRU replacement policy
L1D has LRU replacement policy
Initialize SRRIP state for L2C
Initialize DRRIP state for LLC
BTB has LRU replacement policy
ITLB has LRU replacement policy
DTLB has LRU replacement policy
STLB has LRU replacement policy
L1I has LRU replacement policy
L1D has LRU replacement policy
Initialize SRRIP state for L2C
Initialize DRRIP state for LLC
BTB has LRU replacement policy
ITLB has LRU replacement policy
DTLB has LRU replacement policy
STLB has LRU replacement policy
L1I has LRU replacement policy
L1D has LRU replacement policy
Initialize SRRIP state for L2C
Initialize DRRIP state for LLC
BTB has LRU replacement policy
ITLB has LRU replacement policy
DTLB has LRU replacement policy
STLB has LRU replacement policy
L1I has LRU replacement policy
L1D has LRU replacement policy
Initialize SRRIP state for L2C
Initialize DRRIP state for LLC
Heartbeat CPU 0 instructions: 10000001 cycles: 3599588 heartbeat IPC: 2.7781 cumulative IPC: 2.7781 (Simulation time: 0 hr 3 min 44 sec) 
Heartbeat CPU 2 instructions: 10000001 cycles: 3599595 heartbeat IPC: 2.77809 cumulative IPC: 2.77809 (Simulation time: 0 hr 3 min 44 sec) 
Heartbeat CPU 1 instructions: 10000001 cycles: 3599722 heartbeat IPC: 2.77799 cumulative IPC: 2.77799 (Simulation time: 0 hr 3 min 44 sec) 
Heartbeat CPU 3 instructions: 10000001 cycles: 3599891 heartbeat IPC: 2.77786 cumulative IPC: 2.77786 (Simulation time: 0 hr 3 min 44 sec) 
Heartbeat CPU 1 instructions: 20000001 cycles: 7196837 heartbeat IPC: 2.78001 cumulative IPC: 2.779 (Simulation time: 0 hr 6 min 54 sec) 
Heartbeat CPU 2 instructions: 20000001 cycles: 7196897 heartbeat IPC: 2.77986 cumulative IPC: 2.77898 (Simulation time: 0 hr 6 min 54 sec) 
Heartbeat CPU 0 instructions: 20000001 cycles: 7196996 heartbeat IPC: 2.77978 cumulative IPC: 2.77894 (Simulation time: 0 hr 6 min 54 sec) 
Heartbeat CPU 3 instructions: 20000001 cycles: 7197192 heartbeat IPC: 2.77986 cumulative IPC: 2.77886 (Simulation time: 0 hr 6 min 54 sec) 
Heartbeat CPU 1 instructions: 30000003 cycles: 10793810 heartbeat IPC: 2.78012 cumulative IPC: 2.77937 (Simulation time: 0 hr 10 min 3 sec) 
Heartbeat CPU 0 instructions: 30000003 cycles: 10793962 heartbeat IPC: 2.78012 cumulative IPC: 2.77933 (Simulation time: 0 hr 10 min 3 sec) 
Heartbeat CPU 2 instructions: 30000003 cycles: 10794027 heartbeat IPC: 2.77999 cumulative IPC: 2.77932 (Simulation time: 0 hr 10 min 3 sec) 
Heartbeat CPU 3 instructions: 30000003 cycles: 10794368 heartbeat IPC: 2.77996 cumulative IPC: 2.77923 (Simulation time: 0 hr 10 min 3 sec) 
Heartbeat CPU 1 instructions: 40000003 cycles: 14391186 heartbeat IPC: 2.7798 cumulative IPC: 2.77948 (Simulation time: 0 hr 13 min 33 sec) 
Heartbeat CPU 0 instructions: 40000001 cycles: 14391690 heartbeat IPC: 2.77953 cumulative IPC: 2.77938 (Simulation time: 0 hr 13 min 33 sec) 
Heartbeat CPU 3 instructions: 40000003 cycles: 14391788 heartbeat IPC: 2.77977 cumulative IPC: 2.77936 (Simulation time: 0 hr 13 min 33 sec) 
Heartbeat CPU 2 instructions: 40000003 cycles: 14391799 heartbeat IPC: 2.7795 cumulative IPC: 2.77936 (Simulation time: 0 hr 13 min 33 sec) 
Heartbeat CPU 1 instructions: 50000002 cycles: 17987223 heartbeat IPC: 2.78084 cumulative IPC: 2.77975 (Simulation time: 0 hr 17 min 15 sec) 
Heartbeat CPU 0 instructions: 50000002 cycles: 17987745 heartbeat IPC: 2.78083 cumulative IPC: 2.77967 (Simulation time: 0 hr 17 min 15 sec) 
Heartbeat CPU 2 instructions: 50000002 cycles: 17987887 heartbeat IPC: 2.7808 cumulative IPC: 2.77965 (Simulation time: 0 hr 17 min 15 sec) 
Heartbeat CPU 3 instructions: 50000002 cycles: 17987971 heartbeat IPC: 2.78073 cumulative IPC: 2.77964 (Simulation time: 0 hr 17 min 15 sec) 

Warmup complete CPU 0 instructions: 50000735 cycles: 17987971 (Simulation time: 0 hr 17 min 15 sec) 
Warmup complete CPU 1 instructions: 50002475 cycles: 17987971 (Simulation time: 0 hr 17 min 15 sec) 
Warmup complete CPU 2 instructions: 50000253 cycles: 17987971 (Simulation time: 0 hr 17 min 15 sec) 
Warmup complete CPU 3 instructions: 50000002 cycles: 17987971 (Simulation time: 0 hr 17 min 15 sec) 

Heartbeat CPU 1 instructions: 60000002 cycles: 25656718 heartbeat IPC: 1.30387 cumulative IPC: 1.30367 (Simulation time: 0 hr 20 min 55 sec) 
Heartbeat CPU 0 instructions: 60000002 cycles: 25677133 heartbeat IPC: 1.30049 cumulative IPC: 1.30044 (Simulation time: 0 hr 20 min 56 sec) 
Heartbeat CPU 3 instructions: 60000002 cycles: 25681371 heartbeat IPC: 1.29982 cumulative IPC: 1.29982 (Simulation time: 0 hr 20 min 56 sec) 
Heartbeat CPU 2 instructions: 60000002 cycles: 25696162 heartbeat IPC: 1.29731 cumulative IPC: 1.29729 (Simulation time: 0 hr 20 min 56 sec) 
Heartbeat CPU 1 instructions: 70000003 cycles: 33333410 heartbeat IPC: 1.30264 cumulative IPC: 1.30316 (Simulation time: 0 hr 24 min 28 sec) 
Heartbeat CPU 0 instructions: 70000003 cycles: 33349711 heartbeat IPC: 1.30334 cumulative IPC: 1.30189 (Simulation time: 0 hr 24 min 28 sec) 
Heartbeat CPU 3 instructions: 70000003 cycles: 33363777 heartbeat IPC: 1.30168 cumulative IPC: 1.30074 (Simulation time: 0 hr 24 min 29 sec) 
Heartbeat CPU 2 instructions: 70000003 cycles: 33374471 heartbeat IPC: 1.30237 cumulative IPC: 1.29982 (Simulation time: 0 hr 24 min 29 sec) 
Heartbeat CPU 1 instructions: 80000002 cycles: 41293901 heartbeat IPC: 1.2562 cumulative IPC: 1.28712 (Simulation time: 0 hr 28 min 18 sec) 
Heartbeat CPU 0 instructions: 80000002 cycles: 41311201 heartbeat IPC: 1.25605 cumulative IPC: 1.28624 (Simulation time: 0 hr 28 min 19 sec) 
Heartbeat CPU 3 instructions: 80000002 cycles: 41332942 heartbeat IPC: 1.25484 cumulative IPC: 1.28507 (Simulation time: 0 hr 28 min 19 sec) 
Heartbeat CPU 2 instructions: 80000002 cycles: 41342538 heartbeat IPC: 1.25501 cumulative IPC: 1.28453 (Simulation time: 0 hr 28 min 20 sec) 
Heartbeat CPU 1 instructions: 90000002 cycles: 48960568 heartbeat IPC: 1.30435 cumulative IPC: 1.29138 (Simulation time: 0 hr 32 min 18 sec) 
Heartbeat CPU 0 instructions: 90000002 cycles: 48989516 heartbeat IPC: 1.30237 cumulative IPC: 1.29023 (Simulation time: 0 hr 32 min 19 sec) 
Heartbeat CPU 3 instructions: 90000002 cycles: 49011960 heartbeat IPC: 1.30225 cumulative IPC: 1.28932 (Simulation time: 0 hr 32 min 19 sec) 
Heartbeat CPU 2 instructions: 90000002 cycles: 49016515 heartbeat IPC: 1.30311 cumulative IPC: 1.28913 (Simulation time: 0 hr 32 min 20 sec) 
Heartbeat CPU 1 instructions: 100000001 cycles: 56623903 heartbeat IPC: 1.30491 cumulative IPC: 1.29407 (Simulation time: 0 hr 36 min 12 sec) 
Heartbeat CPU 0 instructions: 100000001 cycles: 56653154 heartbeat IPC: 1.30486 cumulative IPC: 1.29313 (Simulation time: 0 hr 36 min 13 sec) 
Heartbeat CPU 3 instructions: 100000001 cycles: 56681121 heartbeat IPC: 1.30392 cumulative IPC: 1.29222 (Simulation time: 0 hr 36 min 14 sec) 
Heartbeat CPU 2 instructions: 100000001 cycles: 56701953 heartbeat IPC: 1.30116 cumulative IPC: 1.29152 (Simulation time: 0 hr 36 min 14 sec) 
Heartbeat CPU 1 instructions: 110000000 cycles: 64272546 heartbeat IPC: 1.30742 cumulative IPC: 1.29627 (Simulation time: 0 hr 40 min 10 sec) 
Heartbeat CPU 0 instructions: 110000000 cycles: 64318198 heartbeat IPC: 1.30462 cumulative IPC: 1.29504 (Simulation time: 0 hr 40 min 12 sec) 
Heartbeat CPU 3 instructions: 110000000 cycles: 64336564 heartbeat IPC: 1.30626 cumulative IPC: 1.29454 (Simulation time: 0 hr 40 min 12 sec) 
Heartbeat CPU 2 instructions: 110000000 cycles: 64352681 heartbeat IPC: 1.30707 cumulative IPC: 1.29408 (Simulation time: 0 hr 40 min 13 sec) 
Heartbeat CPU 1 instructions: 120000001 cycles: 71904408 heartbeat IPC: 1.3103 cumulative IPC: 1.29826 (Simulation time: 0 hr 43 min 55 sec) 
Heartbeat CPU 0 instructions: 120000001 cycles: 71962827 heartbeat IPC: 1.30811 cumulative IPC: 1.29689 (Simulation time: 0 hr 43 min 57 sec) 
Heartbeat CPU 3 instructions: 120000001 cycles: 71990147 heartbeat IPC: 1.30658 cumulative IPC: 1.29624 (Simulation time: 0 hr 43 min 58 sec) 
Heartbeat CPU 2 instructions: 120000001 cycles: 72023474 heartbeat IPC: 1.30365 cumulative IPC: 1.29544 (Simulation time: 0 hr 43 min 59 sec) 
Heartbeat CPU 1 instructions: 130000000 cycles: 79553373 heartbeat IPC: 1.30737 cumulative IPC: 1.29939 (Simulation time: 0 hr 47 min 57 sec) 
Heartbeat CPU 0 instructions: 130000000 cycles: 79608035 heartbeat IPC: 1.30801 cumulative IPC: 1.29827 (Simulation time: 0 hr 47 min 59 sec) 
Heartbeat CPU 3 instructions: 130000000 cycles: 79663131 heartbeat IPC: 1.30327 cumulative IPC: 1.29712 (Simulation time: 0 hr 48 min 1 sec) 
Heartbeat CPU 2 instructions: 130000000 cycles: 79682705 heartbeat IPC: 1.30561 cumulative IPC: 1.2967 (Simulation time: 0 hr 48 min 2 sec) 
Heartbeat CPU 1 instructions: 140000002 cycles: 87215970 heartbeat IPC: 1.30504 cumulative IPC: 1.30002 (Simulation time: 0 hr 51 min 57 sec) 
Heartbeat CPU 0 instructions: 140000002 cycles: 87258931 heartbeat IPC: 1.30704 cumulative IPC: 1.29924 (Simulation time: 0 hr 51 min 59 sec) 
Heartbeat CPU 3 instructions: 140000002 cycles: 87314479 heartbeat IPC: 1.30696 cumulative IPC: 1.2982 (Simulation time: 0 hr 52 min 1 sec) 
Heartbeat CPU 2 instructions: 140000002 cycles: 87346498 heartbeat IPC: 1.30484 cumulative IPC: 1.2976 (Simulation time: 0 hr 52 min 2 sec) 
Heartbeat CPU 1 instructions: 150000002 cycles: 94885701 heartbeat IPC: 1.30383 cumulative IPC: 1.3004 (Simulation time: 0 hr 56 min 3 sec) 
Heartbeat CPU 0 instructions: 150000002 cycles: 94928380 heartbeat IPC: 1.30387 cumulative IPC: 1.2997 (Simulation time: 0 hr 56 min 4 sec) 
Heartbeat CPU 3 instructions: 150000002 cycles: 94980128 heartbeat IPC: 1.30452 cumulative IPC: 1.29883 (Simulation time: 0 hr 56 min 6 sec) 
Heartbeat CPU 2 instructions: 150000002 cycles: 95022304 heartbeat IPC: 1.30279 cumulative IPC: 1.29812 (Simulation time: 0 hr 56 min 7 sec) 
Heartbeat CPU 1 instructions: 160000003 cycles: 102575422 heartbeat IPC: 1.30044 cumulative IPC: 1.3004 (Simulation time: 0 hr 59 min 58 sec) 
Heartbeat CPU 0 instructions: 160000003 cycles: 102618519 heartbeat IPC: 1.30037 cumulative IPC: 1.29976 (Simulation time: 0 hr 59 min 59 sec) 
Heartbeat CPU 3 instructions: 160000003 cycles: 102665672 heartbeat IPC: 1.30114 cumulative IPC: 1.29904 (Simulation time: 1 hr 0 min 1 sec) 
Heartbeat CPU 2 instructions: 160000003 cycles: 102708173 heartbeat IPC: 1.30109 cumulative IPC: 1.29839 (Simulation time: 1 hr 0 min 2 sec) 
Heartbeat CPU 1 instructions: 170000000 cycles: 110256433 heartbeat IPC: 1.30191 cumulative IPC: 1.30053 (Simulation time: 1 hr 3 min 45 sec) 
Heartbeat CPU 0 instructions: 170000000 cycles: 110298711 heartbeat IPC: 1.30205 cumulative IPC: 1.29995 (Simulation time: 1 hr 3 min 47 sec) 
Heartbeat CPU 3 instructions: 170000000 cycles: 110364915 heartbeat IPC: 1.29883 cumulative IPC: 1.29903 (Simulation time: 1 hr 3 min 49 sec) 
Heartbeat CPU 2 instructions: 170000000 cycles: 110386144 heartbeat IPC: 1.30243 cumulative IPC: 1.29872 (Simulation time: 1 hr 3 min 49 sec) 
Heartbeat CPU 1 instructions: 180000001 cycles: 117922327 heartbeat IPC: 1.30448 cumulative IPC: 1.30083 (Simulation time: 1 hr 7 min 37 sec) 
Heartbeat CPU 0 instructions: 180000001 cycles: 117981334 heartbeat IPC: 1.30164 cumulative IPC: 1.30008 (Simulation time: 1 hr 7 min 39 sec) 
Heartbeat CPU 3 instructions: 180000001 cycles: 118034570 heartbeat IPC: 1.30384 cumulative IPC: 1.29939 (Simulation time: 1 hr 7 min 41 sec) 
Heartbeat CPU 2 instructions: 180000001 cycles: 118052274 heartbeat IPC: 1.30444 cumulative IPC: 1.29916 (Simulation time: 1 hr 7 min 41 sec) 
Heartbeat CPU 1 instructions: 190000000 cycles: 125608783 heartbeat IPC: 1.30099 cumulative IPC: 1.30084 (Simulation time: 1 hr 11 min 32 sec) 
Heartbeat CPU 0 instructions: 190000000 cycles: 125664444 heartbeat IPC: 1.30156 cumulative IPC: 1.30018 (Simulation time: 1 hr 11 min 33 sec) 
Heartbeat CPU 3 instructions: 190000001 cycles: 125724649 heartbeat IPC: 1.30038 cumulative IPC: 1.29946 (Simulation time: 1 hr 11 min 35 sec) 
Heartbeat CPU 2 instructions: 190000000 cycles: 125763522 heartbeat IPC: 1.29681 cumulative IPC: 1.29899 (Simulation time: 1 hr 11 min 36 sec) 
Heartbeat CPU 1 instructions: 200000003 cycles: 133269334 heartbeat IPC: 1.30539 cumulative IPC: 1.30114 (Simulation time: 1 hr 15 min 13 sec) 
Heartbeat CPU 0 instructions: 200000003 cycles: 133319548 heartbeat IPC: 1.30632 cumulative IPC: 1.30059 (Simulation time: 1 hr 15 min 14 sec) 
Heartbeat CPU 3 instructions: 200000003 cycles: 133381280 heartbeat IPC: 1.30606 cumulative IPC: 1.2999 (Simulation time: 1 hr 15 min 16 sec) 
Heartbeat CPU 2 instructions: 200000003 cycles: 133431447 heartbeat IPC: 1.30413 cumulative IPC: 1.29934 (Simulation time: 1 hr 15 min 18 sec) 
Heartbeat CPU 1 instructions: 210000001 cycles: 140917721 heartbeat IPC: 1.30746 cumulative IPC: 1.30154 (Simulation time: 1 hr 18 min 55 sec) 
Heartbeat CPU 0 instructions: 210000001 cycles: 140995378 heartbeat IPC: 1.30279 cumulative IPC: 1.30073 (Simulation time: 1 hr 18 min 58 sec) 
Heartbeat CPU 3 instructions: 210000001 cycles: 141027937 heartbeat IPC: 1.30776 cumulative IPC: 1.30039 (Simulation time: 1 hr 18 min 59 sec) 
Heartbeat CPU 2 instructions: 210000001 cycles: 141106728 heartbeat IPC: 1.30288 cumulative IPC: 1.29956 (Simulation time: 1 hr 19 min 1 sec) 
Heartbeat CPU 1 instructions: 220000000 cycles: 148574829 heartbeat IPC: 1.30598 cumulative IPC: 1.3018 (Simulation time: 1 hr 22 min 38 sec) 
Heartbeat CPU 0 instructions: 220000000 cycles: 148633105 heartbeat IPC: 1.30929 cumulative IPC: 1.30123 (Simulation time: 1 hr 22 min 40 sec) 
Heartbeat CPU 3 instructions: 220000000 cycles: 148677949 heartbeat IPC: 1.30719 cumulative IPC: 1.30079 (Simulation time: 1 hr 22 min 41 sec) 
Heartbeat CPU 2 instructions: 220000000 cycles: 148741976 heartbeat IPC: 1.30972 cumulative IPC: 1.30015 (Simulation time: 1 hr 22 min 43 sec) 
Heartbeat CPU 1 instructions: 230000000 cycles: 156225956 heartbeat IPC: 1.307 cumulative IPC: 1.30208 (Simulation time: 1 hr 26 min 27 sec) 
Heartbeat CPU 0 instructions: 230000000 cycles: 156267505 heartbeat IPC: 1.30986 cumulative IPC: 1.30171 (Simulation time: 1 hr 26 min 28 sec) 
Heartbeat CPU 3 instructions: 230000000 cycles: 156336135 heartbeat IPC: 1.30579 cumulative IPC: 1.30107 (Simulation time: 1 hr 26 min 30 sec) 
Heartbeat CPU 2 instructions: 230000000 cycles: 156379756 heartbeat IPC: 1.30928 cumulative IPC: 1.30065 (Simulation time: 1 hr 26 min 32 sec) 
Heartbeat CPU 1 instructions: 240000001 cycles: 164162610 heartbeat IPC: 1.25998 cumulative IPC: 1.2998 (Simulation time: 1 hr 30 min 33 sec) 
Heartbeat CPU 0 instructions: 240000001 cycles: 164178616 heartbeat IPC: 1.26405 cumulative IPC: 1.29967 (Simulation time: 1 hr 30 min 33 sec) 
Heartbeat CPU 3 instructions: 240000001 cycles: 164263653 heartbeat IPC: 1.26143 cumulative IPC: 1.29892 (Simulation time: 1 hr 30 min 36 sec) 
Heartbeat CPU 2 instructions: 240000001 cycles: 164307036 heartbeat IPC: 1.26147 cumulative IPC: 1.29853 (Simulation time: 1 hr 30 min 38 sec) 
Heartbeat CPU 1 instructions: 250000000 cycles: 171792857 heartbeat IPC: 1.31057 cumulative IPC: 1.30033 (Simulation time: 1 hr 34 min 18 sec) 
Finished CPU 1 instructions: 200000002 cycles: 153806476 cumulative IPC: 1.30034 (Simulation time: 1 hr 34 min 18 sec) 
Heartbeat CPU 0 instructions: 250000000 cycles: 171815216 heartbeat IPC: 1.30948 cumulative IPC: 1.30016 (Simulation time: 1 hr 34 min 19 sec) 
Finished CPU 0 instructions: 200000003 cycles: 153827573 cumulative IPC: 1.30016 (Simulation time: 1 hr 34 min 19 sec) 
Heartbeat CPU 3 instructions: 250000000 cycles: 171914981 heartbeat IPC: 1.30696 cumulative IPC: 1.29932 (Simulation time: 1 hr 34 min 22 sec) 
Finished CPU 3 instructions: 200000002 cycles: 153927011 cumulative IPC: 1.29932 (Simulation time: 1 hr 34 min 22 sec) 
Heartbeat CPU 2 instructions: 250000000 cycles: 171942068 heartbeat IPC: 1.30975 cumulative IPC: 1.29909 (Simulation time: 1 hr 34 min 23 sec) 
Finished CPU 2 instructions: 200000002 cycles: 153954228 cumulative IPC: 1.29909 (Simulation time: 1 hr 34 min 23 sec) 

ChampSim completed all CPUs

Total Simulation Statistics (not including warmup)

CPU 0 cumulative IPC: 1.30018 instructions: 200167584 cycles: 153954228
ITLB TOTAL     ACCESS:   28394540  HIT:   28394540  MISS:          0  HIT %:        100  MISS %:          0   MPKI: 0
ITLB LOAD      ACCESS:          0  HIT:          0  MISS:          0  HIT %:       -nan  MISS %:       -nan   MPKI: 0
ITLB RFO       ACCESS:          0  HIT:          0  MISS:          0  HIT %:       -nan  MISS %:       -nan   MPKI: 0
ITLB PREFETCH  ACCESS:          0  HIT:          0  MISS:          0  HIT %:       -nan  MISS %:       -nan   MPKI: 0
ITLB WRITEBACK ACCESS:          0  HIT:          0  MISS:          0  HIT %:       -nan  MISS %:       -nan   MPKI: 0
DTLB TOTAL     ACCESS:   52502562  HIT:   44791922  MISS:    7710640  HIT %:    85.3138  MISS %:    14.6862   MPKI: 38.5209
DTLB LOAD      ACCESS:          0  HIT:          0  MISS:          0  HIT %:       -nan  MISS %:       -nan   MPKI: 0
DTLB RFO       ACCESS:          0  HIT:          0  MISS:          0  HIT %:       -nan  MISS %:       -nan   MPKI: 0
DTLB PREFETCH  ACCESS:          0  HIT:          0  MISS:          0  HIT %:       -nan  MISS %:       -nan   MPKI: 0
DTLB WRITEBACK ACCESS:          0  HIT:          0  MISS:          0  HIT %:       -nan  MISS %:       -nan   MPKI: 0
STLB TOTAL     ACCESS:    8074347  HIT:    8065827  MISS:       8520  HIT %:    99.8945  MISS %:   0.105519   MPKI: 0.0425643
STLB LOAD      ACCESS:          0  HIT:          0  MISS:          0  HIT %:       -nan  MISS %:       -nan   MPKI: 0
STLB RFO       ACCESS:          0  HIT:          0  MISS:          0  HIT %:       -nan  MISS %:       -nan   MPKI: 0
STLB PREFETCH  ACCESS:          0  HIT:          0  MISS:          0  HIT %:       -nan  MISS %:       -nan   MPKI: 0
STLB WRITEBACK ACCESS:          0  HIT:          0  MISS:          0  HIT %:       -nan  MISS %:       -nan   MPKI: 0
L1D TOTAL     ACCESS:   79125259  HIT:   64013787  MISS:   15111472  HIT %:    80.9018  MISS %:    19.0982   MPKI: 75.4941
L1D LOAD      ACCESS:   62700426  HIT:   49200542  MISS:   13499884  HIT %:    78.4692  MISS %:    21.5308   MPKI: 67.4429
L1D RFO       ACCESS:   16012850  HIT:   14809925  MISS:    1202925  HIT %:    92.4878  MISS %:    7.51225   MPKI: 6.00959
L1D PREFETCH  ACCESS:     411983  HIT:       3320  MISS:     408663  HIT %:   0.805858  MISS %:    99.1941   MPKI: 2.0416
L1D WRITEBACK ACCESS:          0  HIT:          0  MISS:          0  HIT %:       -nan  MISS %:       -nan   MPKI: 0
L1I TOTAL     ACCESS:   31618798  HIT:   26414441  MISS:    5204357  HIT %:    83.5403  MISS %:    16.4597   MPKI: 26
L1I LOAD      ACCESS:   31618798  HIT:   26414441  MISS:    5204357  HIT %:    83.5403  MISS %:    16.4597   MPKI: 26
L1I RFO       ACCESS:          0  HIT:          0  MISS:          0  HIT %:       -nan  MISS %:       -nan   MPKI: 0
L1I PREFETCH  ACCESS:          0  HIT:          0  MISS:          0  HIT %:       -nan  MISS %:       -nan   MPKI: 0
L1I WRITEBACK ACCESS:          0  HIT:          0  MISS:          0  HIT %:       -nan  MISS %:       -nan   MPKI: 0
L2C TOTAL     ACCESS:   21612742  HIT:   20430984  MISS:    1181758  HIT %:    94.5321  MISS %:    5.46788   MPKI: 5.90384
L2C LOAD      ACCESS:   18702654  HIT:   18061719  MISS:     640935  HIT %:     96.573  MISS %:    3.42697   MPKI: 3.20199
L2C RFO       ACCESS:    1201640  HIT:    1083351  MISS:     118289  HIT %:     90.156  MISS %:    9.84396   MPKI: 0.59095
L2C PREFETCH  ACCESS:     408988  HIT:       1389  MISS:     407599  HIT %:   0.339619  MISS %:    99.6604   MPKI: 2.03629
L2C WRITEBACK ACCESS:    1286634  HIT:    1282787  MISS:       3847  HIT %:     99.701  MISS %:   0.298997   MPKI: 0.0192189
PSCL5 TOTAL     ACCESS:       8520  HIT:       8520  MISS:          0  HIT %:        100  MISS %:          0   MPKI: 0
PSCL5 LOAD      ACCESS:          0  HIT:          0  MISS:          0  HIT %:       -nan  MISS %:       -nan   MPKI: 0
PSCL5 RFO       ACCESS:          0  HIT:          0  MISS:          0  HIT %:       -nan  MISS %:       -nan   MPKI: 0
PSCL5 PREFETCH  ACCESS:          0  HIT:          0  MISS:          0  HIT %:       -nan  MISS %:       -nan   MPKI: 0
PSCL5 WRITEBACK ACCESS:          0  HIT:          0  MISS:          0  HIT %:       -nan  MISS %:       -nan   MPKI: 0
PSCL4 TOTAL     ACCESS:       8520  HIT:       8520  MISS:          0  HIT %:        100  MISS %:          0   MPKI: 0
PSCL4 LOAD      ACCESS:          0  HIT:          0  MISS:          0  HIT %:       -nan  MISS %:       -nan   MPKI: 0
PSCL4 RFO       ACCESS:          0  HIT:          0  MISS:          0  HIT %:       -nan  MISS %:       -nan   MPKI: 0
PSCL4 PREFETCH  ACCESS:          0  HIT:          0  MISS:          0  HIT %:       -nan  MISS %:       -nan   MPKI: 0
PSCL4 WRITEBACK ACCESS:          0  HIT:          0  MISS:          0  HIT %:       -nan  MISS %:       -nan   MPKI: 0
PSCL3 TOTAL     ACCESS:       8520  HIT:       8520  MISS:          0  HIT %:        100  MISS %:          0   MPKI: 0
PSCL3 LOAD      ACCESS:          0  HIT:          0  MISS:          0  HIT %:       -nan  MISS %:       -nan   MPKI: 0
PSCL3 RFO       ACCESS:          0  HIT:          0  MISS:          0  HIT %:       -nan  MISS %:       -nan   MPKI: 0
PSCL3 PREFETCH  ACCESS:          0  HIT:          0  MISS:          0  HIT %:       -nan  MISS %:       -nan   MPKI: 0
PSCL3 WRITEBACK ACCESS:          0  HIT:          0  MISS:          0  HIT %:       -nan  MISS %:       -nan   MPKI: 0
PSCL2 TOTAL     ACCESS:       8520  HIT:       4205  MISS:       4315  HIT %:    49.3545  MISS %:    50.6455   MPKI: 0.0215569
PSCL2 LOAD      ACCESS:          0  HIT:          0  MISS:          0  HIT %:       -nan  MISS %:       -nan   MPKI: 0
PSCL2 RFO       ACCESS:          0  HIT:          0  MISS:          0  HIT %:       -nan  MISS %:       -nan   MPKI: 0
PSCL2 PREFETCH  ACCESS:          0  HIT:          0  MISS:          0  HIT %:       -nan  MISS %:       -nan   MPKI: 0
PSCL2 WRITEBACK ACCESS:          0  HIT:          0  MISS:          0  HIT %:       -nan  MISS %:       -nan   MPKI: 0
=== CPU 0 L1D Prefetcher Statistics ===
[MLOP] History of tracked zone:
IIIIIIIIIIIIIIIIIIIIIIIIIIIIIIIIIIIIIIIIIIIIIIIIIIIIIIIIIIIIIIII
IIIIIIIIIIIIIIIIIIIIIIIIIIIIIIIIIIIIIIIIIIIIIIIIIIIIIIIIIIIIIIAI
IIIIIIIIIIIIIIIIIIIIIIIIIIIIIIIIIIIIIIIIAIIIIIIIIIIIIIIIIIIIIIAI
IIIIIIIIIIIIIIIIIIIAIIIIIIIIIIIIIIIIIIIIAIIIIIIIIIIIIIIIIIIIIIAI
IIIIIIIIIIIIIIIIIIIAIIIIIIIIIIIIIIIIIIIIAAIIIIIIIIIIIIIIIIIIIIAI
IIIIIIIIIIIIIIIIIIIAIIIIIIIIIIIIIIIIIIIIAAIIIIIIIIIIIIIIIIIIIIAA
IIIIIIIIIIIIIIIIIIIAAIIIIIIIIIIIIIIIIIIIAAIIIIIIIIIIIIIIIIIIIIAA
IIIIIIIIIIIIIIIIIIIAAIIIIIIIIIIIIIIIIIIIAA2IIIIIIIIIIIIIIIIIIIAA
IIIIIIIIIIIIIIIIIIIAA2IIIIIIIIIIIIIIIIIIAA2IIIIIIIIIIIIIIIIIIIAA
IIIIIIIIIIIIIIIIIIIAA2IIIIIIIIIIIIIIIIIIAAA2IIIIIIIIIIIIIIIIIIAA
IIIIIIIIIIIIIIIIIIIAAA2IIIIIIIIIIIIIIIIIAAA2IIIIIIIIIIIIIIIIIIAA
IIIIIIIIIIIIIIIIIIIAAA2IIIIIIIIIIIIIIIIIAAAAIIIIIIIIIIIIIIIIIIAA
IIIIIIIIIIIIIIIIIIIAAAAIIIIIIIIIIIIIIIIIAAAAIIIIIIIIIIIIIIIIIIAA
IIIIIIIIIIIIIIIIIIIAAAAIIIIIIIIIIIIIIIIIAAAA11IIIIIIIIIIIIIIIIAA
IIIIIIIIIIIIIIIIIIIAAAA11IIIIIIIIIIIIIIIAAAA11IIIIIIIIIIIIIIIIAA
IIIIIIIIIIIIIIIIIIIAAAA11IIIIIIIIIIIIIIIAAAAA11IIIIIIIIIIIIIIIAA
IIIIIIIIIIIIIIIIIIIAAAAA11IIIIIIIIIIIIIIAAAAA11IIIIIIIIIIIIIIIAA
IIIIIIIIIIIIIIIIIIIAAAAA111IIIIIIIIIIIIIAAAAA11IIIIIIIIIIIIIIIAA
IIIIIIIIIIIIIIIIIIIAAAAA111IIIIIIIIIIIIIAAAAA111IIIIIIIIIIIIIIAA
IIIIIIIIIIIIIIIIIIIAAAAA111IIIIIIIIIIIIIAAAAAA111IIIIIIIIIIIIIAA
IIIIIIIIIIIIIIIIIIIAAAAAA111IIIIIIIIIIIIAAAAAA111IIIIIIIIIIIIIAA
IIIIIIIIIIIIIIIIIIIAAAAAA111IIIIIIIIIIIIAAAAAAA111IIIIIIIIIIIIAA
IIIIIIIIIIIIIIIIIIIAAAAAAA111IIIIIIIIIIIAAAAAAA111IIIIIIIIIIIIAA
IIIIIIIIIIIIIIIIIIIAAAAAAA111IIIIIIIIIIIAAAAAAAA111IIIIIIIIIIIAA
IIIIIIIIIIIIIIIIIIIAAAAAAAA111IIIIIIIIIIAAAAAAAA111IIIIIIIIIIIAA
IIIIIIIIIIIIIIIIIIIAAAAAAAA111IIIIIIIIIIAAAAAAAAA111IIIIIIIIIIAA
IIIIIIIIIIIIIIIIIIIAAAAAAAAA111IIIIIIIIIAAAAAAAAA111IIIIIIIIIIAA
IIIIIIIIIIIIIIIIIIIAAAAAAAAA111IIIIIIIIIAAAAAAAAAA111IIIIIIIIIAA
IIIIIIIIIIIIIIIIIIIAAAAAAAAAA11IIIIIIIIIAAAAAAAAAA111IIIIIIIIIAA
IIIIIIIIIIIIIIIIIIIAAAAAAAAAA11IIIIIIIIIAAAAAAAAAA1111IIIIIIIIAA
IIIIIIIIIIIIIIIIIIIAAAAAAAAAA11IIIIIIIIIAAAAAAAAAA11111IIIIIIIAA
IIIIIIIIIIIIIIIIIIIAAAAAAAAAA11111IIIIIIAAAAAAAAAA11111IIIIIIIAA
IIIIIIIIIIIIIIIIIIIAAAAAAAAAA11111IIIIIIAAAAAAAAAAA11111IIIIIIAA
IIIIIIIIIIIIIIIIIIIAAAAAAAAAAA11111IIIIIAAAAAAAAAAA11111IIIIIIAA
IIIIIIIIIIIIIIIIIIIAAAAAAAAAAA11111IIIIIAAAAAAAAAAAA111111IIIIAA
IIIIIIIIIIIIIIIIIIIAAAAAAAAAAA111111IIIIAAAAAAAAAAAA111111IIIIAA
IIIIIIIIIIIIIIIIIIIAAAAAAAAAAAA111111IIIAAAAAAAAAAAA111111IIIIAA
IIIIIIIIIIIIIIIIIIIAAAAAAAAAAAA111111IIIAAAAAAAAAAAAA111111IIIAA
IIIIIIIIIIIIIIIIIIIAAAAAAAAAAAAA11111IIIAAAAAAAAAAAAA111111IIIAA
IIIIIIIIIIIIIIIIIIIAAAAAAAAAAAAA11111IIIAAAAAAAAAAAAAA11111IIIAA
IIIIIIIIIIIIIIIIIIIAAAAAAAAAAAAAA1111IIIAAAAAAAAAAAAAA11111IIIAA
IIIIIIIIIIIIIIIIIIIAAAAAAAAAAAAAA1111IIIAAAAAAAAAAAAAAA1111IIIAA
IIIIIIIIIIIIIIIIIIIAAAAAAAAAAAAAAA111IIIAAAAAAAAAAAAAAA1111IIIAA
IIIIIIIIIIIIIIIIIIIAAAAAAAAAAAAAAA111IIIAAAAAAAAAAAAAAAA111IIIAA
IIIIIIIIIIIIIIIIIIIAAAAAAAAAAAAAAAA111IIAAAAAAAAAAAAAAAA111IIIAA
IIIIIIIIIIIIIIIIIIIAAAAAAAAAAAAAAAA111IIAAAAAAAAAAAAAAAA1111IIAA
IIIIIIIIIIIIIIIIIIIAAAAAAAAAAAAAAAA11111AAAAAAAAAAAAAAAA1111IIAA
IIIIIIIIIIIIIIIIIIIAAAAAAAAAAAAAAAA11111AAAAAAAAAAAAAAAA11111IAA
IIIIIIIIIIIIIIIIIIIAAAAAAAAAAAAAAAA11111AAAAAAAAAAAAAAAAA11111AA
IIIIIIIIIIIIIIIIIIIAAAAAAAAAAAAAAAAA1111AAAAAAAAAAAAAAAAA11111AA
IIIIIIIIIIIIIIIIIIIAAAAAAAAAAAAAAAAA1111AAAAAAAAAAAAAAAAAA1111AA
IIIIIIIIIIIIIIIIIIIAAAAAAAAAAAAAAAAAA111AAAAAAAAAAAAAAAAAA1111AA
IIIIIIIIIIIIIIIIIIIAAAAAAAAAAAAAAAAAA111AAAAAAAAAAAAAAAAAAA111AA
IIIIIIIIIIIIIIIIIIIAAAAAAAAAAAAAAAAAAA11AAAAAAAAAAAAAAAAAAA111AA
IIIIIIIIIIIIIIIIIIIAAAAAAAAAAAAAAAAAAA11AAAAAAAAAAAAAAAAAAAA11AA
IIIIIIIIIIIIIIIIIIIAAAAAAAAAAAAAAAAAAAA1AAAAAAAAAAAAAAAAAAAA11AA
IIIIIIIIIIIIIIIIIIIAAAAAAAAAAAAAAAAAAAA1AAAAAAAAAAAAAAAAAAAAA1AA
IIIIIIIIIIIIIIIIIIIAAAAAAAAAAAAAAAAAAAAAAAAAAAAAAAAAAAAAAAAAA1AA
IIIIIIIIIIIIIIIIIIIAAAAAAAAAAAAAAAAAAAAAAAAAAAAAAAAAAAAAAAAAAAAA
A111IIIIIIIIIIIIIIIIIIIIIIIIIIIIIIIIIIIIIIIIIIIIIIIIIIIIIIIIIIII
AA111IIIIIIIIIIIIIIIIIIIIIIIIIIIIIIIIIIIIIIIIIIIIIIIIIIIIIIIIIII
AAA111IIIIIIIIIIIIIIIIIIIIIIIIIIIIIIIIIIIIIIIIIIIIIIIIIIIIIIIIII
AAAA111IIIIIIIIIIIIIIIIIIIIIIIIIIIIIIIIIIIIIIIIIIIIIIIIIIIIIIIII
AAAAA111IIIIIIIIIIIIIIIIIIIIIIIIIIIIIIIIIIIIIIIIIIIIIIIIIIIIIIII
AAAAAA111IIIIIIIIIIIIIIIIIIIIIIIIIIIIIIIIIIIIIIIIIIIIIIIIIIIIIII
AAAAAA1111IIIIIIIIIIIIIIIIIIIIIIIIIIIIIIIIIIIIIIIIIIIIIIIIIIIIII
AAAAAAA1111IIIIIIIIIIIIIIIIIIIIIIIIIIIIIIIIIIIIIIIIIIIIIIIIIIIII
AAAAAAAA1111IIIIIIIIIIIIIIIIIIIIIIIIIIIIIIIIIIIIIIIIIIIIIIIIIIII
AAAAAAAAA1111IIIIIIIIIIIIIIIIIIIIIIIIIIIIIIIIIIIIIIIIIIIIIIIIIII
AAAAAAAAAA1111IIIIIIIIIIIIIIIIIIIIIIIIIIIIIIIIIIIIIIIIIIIIIIIIII
AAAAAAAAAAA1111IIIIIIIIIIIIIIIIIIIIIIIIIIIIIIIIIIIIIIIIIIIIIIIII
AAAAAAAAAAAA1111IIIIIIIIIIIIIIIIIIIIIIIIIIIIIIIIIIIIIIIIIIIIIIII
AAAAAAAAAAAAA1111IIIIIIIIIIIIIIIIIIIIIIIIIIIIIIIIIIIIIIIIIIIIIII
AAAAAAAAAAAAAA111IIIIIIIIIIIIIIIIIIIIIIIIIIIIIIIIIIIIIIIIIIIIIII
AAAAAAAAAAAAAAA11IIIIIIIIIIIIIIIIIIIIIIIIIIIIIIIIIIIIIIIIIIIIIII
AAAAAAAAAAAAAAA111IIIIIIIIIIIIIIIIIIIIIIIIIIIIIIIIIIIIIIIIIIIIII
AAAAAAAAAAAAAAAA11IIIIIIIIIIIIIIIIIIIIIIIIIIIIIIIIIIIIIIIIIIIIII
AAAAAAAAAAAAAAAA111IIIIIIIIIIIIIIIIIIIIIIIIIIIIIIIIIIIIIIIIIIIII
AAAAAAAAAAAAAAAAA111IIIIIIIIIIIIIIIIIIIIIIIIIIIIIIIIIIIIIIIIIIII
AAAAAAAAAAAAAAAAAA111IIIIIIIIIIIIIIIIIIIIIIIIIIIIIIIIIIIIIIIIIII
AAAAAAAAAAAAAAAAAAA111IIIIIIIIIIIIIIIIIIIIIIIIIIIIIIIIIIIIIIIIII
AAAAAAAAAAAAAAAAAAAA111IIIIIIIIIIIIIIIIIIIIIIIIIIIIIIIIIIIIIIIII
AAAAAAAAAAAAAAAAAAAAA111IIIIIIIIIIIIIIIIIIIIIIIIIIIIIIIIIIIIIIII
AAAAAAAAAAAAAAAAAAAAAA111IIIIIIIIIIIIIIIIIIIIIIIIIIIIIIIIIIIIIII
AAAAAAAAAAAAAAAAAAAAAAA111IIIIIIIIIIIIIIIIIIIIIIIIIIIIIIIIIIIIII
AAAAAAAAAAAAAAAAAAAAAAAA111IIIIIIIIIIIIIIIIIIIIIIIIIIIIIIIIIIIII
AAAAAAAAAAAAAAAAAAAAAAAAA111IIIIIIIIIIIIIIIIIIIIIIIIIIIIIIIIIIII
AAAAAAAAAAAAAAAAAAAAAAAAA1111IIIIIIIIIIIIIIIIIIIIIIIIIIIIIIIIIII
AAAAAAAAAAAAAAAAAAAAAAAAAA1111IIIIIIIIIIIIIIIIIIIIIIIIIIIIIIIIII
AAAAAAAAAAAAAAAAAAAAAAAAAAA1111IIIIIIIIIIIIIIIIIIIIIIIIIIIIIIIII
AAAAAAAAAAAAAAAAAAAAAAAAAAAA1111IIIIIIIIIIIIIIIIIIIIIIIIIIIIIIII
AAAAAAAAAAAAAAAAAAAAAAAAAAAAA111IIIIIIIIIIIIIIIIIIIIIIIIIIIIIIII
AAAAAAAAAAAAAAAAAAAAAAAAAAAAA1111IIIIIIIIIIIIIIIIIIIIIIIIIIIIIII
AAAAAAAAAAAAAAAAAAAAAAAAAAAAAA111IIIIIIIIIIIIIIIIIIIIIIIIIIIIIII
AAAAAAAAAAAAAAAAAAAAAAAAAAAAAA1111IIIIIIIIIIIIIIIIIIIIIIIIIIIIII
AAAAAAAAAAAAAAAAAAAAAAAAAAAAAAA111IIIIIIIIIIIIIIIIIIIIIIIIIIIIII
AAAAAAAAAAAAAAAAAAAAAAAAAAAAAAA1111IIIIIIIIIIIIIIIIIIIIIIIIIIIII
AAAAAAAAAAAAAAAAAAAAAAAAAAAAAAAA1111IIIIIIIIIIIIIIIIIIIIIIIIIIII
AAAAAAAAAAAAAAAAAAAAAAAAAAAAAAAA111111111IIIIIIIIIIIIIIIIIIIIIII
AAAAAAAAAAAAAAAAAAAAAAAAAAAAAAAAA11111111IIIIIIIIIIIIIIIIIIIIIII
AAAAAAAAAAAAAAAAAAAAAAAAAAAAAAAAA111111111IIIIIIIIIIIIIIIIIIIIII
AAAAAAAAAAAAAAAAAAAAAAAAAAAAAAAAAA111111111IIIIIIIIIIIIIIIIIIIII
AAAAAAAAAAAAAAAAAAAAAAAAAAAAAAAAAAA111111111IIIIIIIIIIIIIIIIIIII
AAAAAAAAAAAAAAAAAAAAAAAAAAAAAAAAAAAA111111111IIIIIIIIIIIIIIIIIII
AAAAAAAAAAAAAAAAAAAAAAAAAAAAAAAAAAAAA111111111IIIIIIIIIIIIIIIIII
AAAAAAAAAAAAAAAAAAAAAAAAAAAAAAAAAAAAAA111111111IIIIIIIIIIIIIIIII
AAAAAAAAAAAAAAAAAAAAAAAAAAAAAAAAAAAAAAA11111111IIIIIIIIIIIIIIIII
AAAAAAAAAAAAAAAAAAAAAAAAAAAAAAAAAAAAAAAA1111111IIIIIIIIIIIIIIIII
AAAAAAAAAAAAAAAAAAAAAAAAAAAAAAAAAAAAAAAAA111111IIIIIIIIIIIIIIIII
AAAAAAAAAAAAAAAAAAAAAAAAAAAAAAAAAAAAAAAAAA11111IIIIIIIIIIIIIIIII
AAAAAAAAAAAAAAAAAAAAAAAAAAAAAAAAAAAAAAAAAAA1111IIIIIIIIIIIIIIIII
AAAAAAAAAAAAAAAAAAAAAAAAAAAAAAAAAAAAAAAAAAAA111IIIIIIIIIIIIIIIII
AAAAAAAAAAAAAAAAAAAAAAAAAAAAAAAAAAAAAAAAAAAAA111IIIIIIIIIIIIIIII
AAAAAAAAAAAAAAAAAAAAAAAAAAAAAAAAAAAAAAAAAAAAAA11IIIIIIIIIIIIIIII
AAAAAAAAAAAAAAAAAAAAAAAAAAAAAAAAAAAAAAAAAAAAAA111IIIIIIIIIIIIIII
AAAAAAAAAAAAAAAAAAAAAAAAAAAAAAAAAAAAAAAAAAAAAAA111IIIIIIIIIIIIII
AAAAAAAAAAAAAAAAAAAAAAAAAAAAAAAAAAAAAAAAAAAAAAAA111IIIIIIIIIIIII
AAAAAAAAAAAAAAAAAAAAAAAAAAAAAAAAAAAAAAAAAAAAAAAAA111IIIIIIIIIIII
AAAAAAAAAAAAAAAAAAAAAAAAAAAAAAAAAAAAAAAAAAAAAAAAAA111IIIIIIIIIII
AAAAAAAAAAAAAAAAAAAAAAAAAAAAAAAAAAAAAAAAAAAAAAAAAA1111IIIIIIIIII
AAAAAAAAAAAAAAAAAAAAAAAAAAAAAAAAAAAAAAAAAAAAAAAAAAA1111IIIIIIIII
AAAAAAAAAAAAAAAAAAAAAAAAAAAAAAAAAAAAAAAAAAAAAAAAAAAA1111IIIIIIII
AAAAAAAAAAAAAAAAAAAAAAAAAAAAAAAAAAAAAAAAAAAAAAAAAAAAA1111IIIIIII
AAAAAAAAAAAAAAAAAAAAAAAAAAAAAAAAAAAAAAAAAAAAAAAAAAAAAA1111IIIIII
AAAAAAAAAAAAAAAAAAAAAAAAAAAAAAAAAAAAAAAAAAAAAAAAAAAAAAA1111IIIII
AAAAAAAAAAAAAAAAAAAAAAAAAAAAAAAAAAAAAAAAAAAAAAAAAAAAAAAA1111IIII
AAAAAAAAAAAAAAAAAAAAAAAAAAAAAAAAAAAAAAAAAAAAAAAAAAAAAAAAA111IIII
AAAAAAAAAAAAAAAAAAAAAAAAAAAAAAAAAAAAAAAAAAAAAAAAAAAAAAAAAA111III
AAAAAAAAAAAAAAAAAAAAAAAAAAAAAAAAAAAAAAAAAAAAAAAAAAAAAAAAAAA111II
AAAAAAAAAAAAAAAAAAAAAAAAAAAAAAAAAAAAAAAAAAAAAAAAAAAAAAAAAAAA111I
AAAAAAAAAAAAAAAAAAAAAAAAAAAAAAAAAAAAAAAAAAAAAAAAAAAAAAAAAAAAA111
AAAAAAAAAAAAAAAAAAAAAAAAAAAAAAAAAAAAAAAAAAAAAAAAAAAAAAAAAAAAAA11
AAAAAAAAAAAAAAAAAAAAAAAAAAAAAAAAAAAAAAAAAAAAAAAAAAAAAAAAAAAAAAA1
AAAAAAAAAAAAAAAAAAAAAAAAAAAAAAAAAAAAAAAAAAAAAAAAAAAAAAAAAAAAAAAA
[MLOP] Prefetch Degree Mean: 3.7428
[MLOP] Prefetch Degree SD: 1.26773
[MLOP] Max Score Left Mean (%): 93.9362
[MLOP] Max Score Left SD (%): 10.7026
[MLOP] Max Score Right Mean (%): 98.1446
[MLOP] Max Score Right SD (%): 9.09412
LLC TOTAL     ACCESS:    1299471  HIT:     753207  MISS:     546264  HIT %:    57.9626  MISS %:    42.0374   MPKI: 2.72903
LLC LOAD      ACCESS:     640933  HIT:     626374  MISS:      14559  HIT %:    97.7285  MISS %:    2.27153   MPKI: 0.0727341
LLC RFO       ACCESS:     118236  HIT:        436  MISS:     117800  HIT %:   0.368754  MISS %:    99.6312   MPKI: 0.588507
LLC PREFETCH  ACCESS:     407599  HIT:        348  MISS:     407251  HIT %:   0.085378  MISS %:    99.9146   MPKI: 2.03455
LLC WRITEBACK ACCESS:     121615  HIT:     116192  MISS:       5423  HIT %:    95.5408  MISS %:    4.45915   MPKI: 0.0270923

RAW hits: 811700
Loads Generated: 78437389
Loads sent to L1D: 77625686
Stores Generated: 16226236
Stores sent to L1D: 16226264

CPU 1 cumulative IPC: 1.30037 instructions: 200196871 cycles: 153954228
ITLB TOTAL     ACCESS:   28399271  HIT:   28399271  MISS:          0  HIT %:        100  MISS %:          0   MPKI: 0
ITLB LOAD      ACCESS:          0  HIT:          0  MISS:          0  HIT %:       -nan  MISS %:       -nan   MPKI: 0
ITLB RFO       ACCESS:          0  HIT:          0  MISS:          0  HIT %:       -nan  MISS %:       -nan   MPKI: 0
ITLB PREFETCH  ACCESS:          0  HIT:          0  MISS:          0  HIT %:       -nan  MISS %:       -nan   MPKI: 0
ITLB WRITEBACK ACCESS:          0  HIT:          0  MISS:          0  HIT %:       -nan  MISS %:       -nan   MPKI: 0
DTLB TOTAL     ACCESS:   52508317  HIT:   44796393  MISS:    7711924  HIT %:    85.3129  MISS %:    14.6871   MPKI: 38.5217
DTLB LOAD      ACCESS:          0  HIT:          0  MISS:          0  HIT %:       -nan  MISS %:       -nan   MPKI: 0
DTLB RFO       ACCESS:          0  HIT:          0  MISS:          0  HIT %:       -nan  MISS %:       -nan   MPKI: 0
DTLB PREFETCH  ACCESS:          0  HIT:          0  MISS:          0  HIT %:       -nan  MISS %:       -nan   MPKI: 0
DTLB WRITEBACK ACCESS:          0  HIT:          0  MISS:          0  HIT %:       -nan  MISS %:       -nan   MPKI: 0
STLB TOTAL     ACCESS:    8076590  HIT:    8068070  MISS:       8520  HIT %:    99.8945  MISS %:    0.10549   MPKI: 0.0425581
STLB LOAD      ACCESS:          0  HIT:          0  MISS:          0  HIT %:       -nan  MISS %:       -nan   MPKI: 0
STLB RFO       ACCESS:          0  HIT:          0  MISS:          0  HIT %:       -nan  MISS %:       -nan   MPKI: 0
STLB PREFETCH  ACCESS:          0  HIT:          0  MISS:          0  HIT %:       -nan  MISS %:       -nan   MPKI: 0
STLB WRITEBACK ACCESS:          0  HIT:          0  MISS:          0  HIT %:       -nan  MISS %:       -nan   MPKI: 0
L1D TOTAL     ACCESS:   79134133  HIT:   64021212  MISS:   15112921  HIT %:    80.9021  MISS %:    19.0979   MPKI: 75.4903
L1D LOAD      ACCESS:   62707162  HIT:   49205809  MISS:   13501353  HIT %:    78.4692  MISS %:    21.5308   MPKI: 67.4404
L1D RFO       ACCESS:   16015297  HIT:   14812108  MISS:    1203189  HIT %:    92.4873  MISS %:    7.51275   MPKI: 6.01003
L1D PREFETCH  ACCESS:     411674  HIT:       3295  MISS:     408379  HIT %:   0.800391  MISS %:    99.1996   MPKI: 2.03989
L1D WRITEBACK ACCESS:          0  HIT:          0  MISS:          0  HIT %:       -nan  MISS %:       -nan   MPKI: 0
L1I TOTAL     ACCESS:   31624020  HIT:   26418905  MISS:    5205115  HIT %:    83.5406  MISS %:    16.4594   MPKI: 26
L1I LOAD      ACCESS:   31624020  HIT:   26418905  MISS:    5205115  HIT %:    83.5406  MISS %:    16.4594   MPKI: 26
L1I RFO       ACCESS:          0  HIT:          0  MISS:          0  HIT %:       -nan  MISS %:       -nan   MPKI: 0
L1I PREFETCH  ACCESS:          0  HIT:          0  MISS:          0  HIT %:       -nan  MISS %:       -nan   MPKI: 0
L1I WRITEBACK ACCESS:          0  HIT:          0  MISS:          0  HIT %:       -nan  MISS %:       -nan   MPKI: 0
L2C TOTAL     ACCESS:   21615855  HIT:   20450898  MISS:    1164957  HIT %:    94.6106  MISS %:    5.38936   MPKI: 5.81906
L2C LOAD      ACCESS:   18704893  HIT:   18081226  MISS:     623667  HIT %:    96.6658  MISS %:    3.33425   MPKI: 3.11527
L2C RFO       ACCESS:    1201967  HIT:    1084049  MISS:     117918  HIT %:    90.1896  MISS %:    9.81042   MPKI: 0.58901
L2C PREFETCH  ACCESS:     409246  HIT:       1545  MISS:     407701  HIT %:   0.377524  MISS %:    99.6225   MPKI: 2.0365
L2C WRITEBACK ACCESS:    1286923  HIT:    1282589  MISS:       4334  HIT %:    99.6632  MISS %:   0.336772   MPKI: 0.0216487
PSCL5 TOTAL     ACCESS:       8520  HIT:       8520  MISS:          0  HIT %:        100  MISS %:          0   MPKI: 0
PSCL5 LOAD      ACCESS:          0  HIT:          0  MISS:          0  HIT %:       -nan  MISS %:       -nan   MPKI: 0
PSCL5 RFO       ACCESS:          0  HIT:          0  MISS:          0  HIT %:       -nan  MISS %:       -nan   MPKI: 0
PSCL5 PREFETCH  ACCESS:          0  HIT:          0  MISS:          0  HIT %:       -nan  MISS %:       -nan   MPKI: 0
PSCL5 WRITEBACK ACCESS:          0  HIT:          0  MISS:          0  HIT %:       -nan  MISS %:       -nan   MPKI: 0
PSCL4 TOTAL     ACCESS:       8520  HIT:       8520  MISS:          0  HIT %:        100  MISS %:          0   MPKI: 0
PSCL4 LOAD      ACCESS:          0  HIT:          0  MISS:          0  HIT %:       -nan  MISS %:       -nan   MPKI: 0
PSCL4 RFO       ACCESS:          0  HIT:          0  MISS:          0  HIT %:       -nan  MISS %:       -nan   MPKI: 0
PSCL4 PREFETCH  ACCESS:          0  HIT:          0  MISS:          0  HIT %:       -nan  MISS %:       -nan   MPKI: 0
PSCL4 WRITEBACK ACCESS:          0  HIT:          0  MISS:          0  HIT %:       -nan  MISS %:       -nan   MPKI: 0
PSCL3 TOTAL     ACCESS:       8520  HIT:       8520  MISS:          0  HIT %:        100  MISS %:          0   MPKI: 0
PSCL3 LOAD      ACCESS:          0  HIT:          0  MISS:          0  HIT %:       -nan  MISS %:       -nan   MPKI: 0
PSCL3 RFO       ACCESS:          0  HIT:          0  MISS:          0  HIT %:       -nan  MISS %:       -nan   MPKI: 0
PSCL3 PREFETCH  ACCESS:          0  HIT:          0  MISS:          0  HIT %:       -nan  MISS %:       -nan   MPKI: 0
PSCL3 WRITEBACK ACCESS:          0  HIT:          0  MISS:          0  HIT %:       -nan  MISS %:       -nan   MPKI: 0
PSCL2 TOTAL     ACCESS:       8520  HIT:       4205  MISS:       4315  HIT %:    49.3545  MISS %:    50.6455   MPKI: 0.0215538
PSCL2 LOAD      ACCESS:          0  HIT:          0  MISS:          0  HIT %:       -nan  MISS %:       -nan   MPKI: 0
PSCL2 RFO       ACCESS:          0  HIT:          0  MISS:          0  HIT %:       -nan  MISS %:       -nan   MPKI: 0
PSCL2 PREFETCH  ACCESS:          0  HIT:          0  MISS:          0  HIT %:       -nan  MISS %:       -nan   MPKI: 0
PSCL2 WRITEBACK ACCESS:          0  HIT:          0  MISS:          0  HIT %:       -nan  MISS %:       -nan   MPKI: 0
=== CPU 1 L1D Prefetcher Statistics ===
[MLOP] History of tracked zone:
IIIIIIIIIIIIIIIIIIIIIIIIIIIIIIIIIIIIIIIIIIIIIIIIIIIIIIIIIIIIIIII
IIIIIIIIIIIIIIIIIIIIIIIIIIIIIIIIIIIIIIIIIIIIIIIIIIIIIIIIIIIIIIAI
IIIIIIIIIIIIIIIIIIIIIIIIIIIIIIIIIIIIIIIIAIIIIIIIIIIIIIIIIIIIIIAI
IIIIIIIIIIIIIIIIIIIAIIIIIIIIIIIIIIIIIIIIAIIIIIIIIIIIIIIIIIIIIIAI
IIIIIIIIIIIIIIIIIIIAIIIIIIIIIIIIIIIIIIIIAAIIIIIIIIIIIIIIIIIIIIAI
IIIIIIIIIIIIIIIIIIIAIIIIIIIIIIIIIIIIIIIIAAIIIIIIIIIIIIIIIIIIIIAA
IIIIIIIIIIIIIIIIIIIAAIIIIIIIIIIIIIIIIIIIAAIIIIIIIIIIIIIIIIIIIIAA
IIIIIIIIIIIIIIIIIIIAAIIIIIIIIIIIIIIIIIIIAA2IIIIIIIIIIIIIIIIIIIAA
IIIIIIIIIIIIIIIIIIIAA2IIIIIIIIIIIIIIIIIIAA2IIIIIIIIIIIIIIIIIIIAA
IIIIIIIIIIIIIIIIIIIAA2IIIIIIIIIIIIIIIIIIAAA2IIIIIIIIIIIIIIIIIIAA
IIIIIIIIIIIIIIIIIIIAAA2IIIIIIIIIIIIIIIIIAAA2IIIIIIIIIIIIIIIIIIAA
IIIIIIIIIIIIIIIIIIIAAA2IIIIIIIIIIIIIIIIIAAAAIIIIIIIIIIIIIIIIIIAA
IIIIIIIIIIIIIIIIIIIAAAAIIIIIIIIIIIIIIIIIAAAAIIIIIIIIIIIIIIIIIIAA
IIIIIIIIIIIIIIIIIIIAAAAIIIIIIIIIIIIIIIIIAAAA11IIIIIIIIIIIIIIIIAA
IIIIIIIIIIIIIIIIIIIAAAA11IIIIIIIIIIIIIIIAAAA11IIIIIIIIIIIIIIIIAA
IIIIIIIIIIIIIIIIIIIAAAA11IIIIIIIIIIIIIIIAAAAA11IIIIIIIIIIIIIIIAA
IIIIIIIIIIIIIIIIIIIAAAAA11IIIIIIIIIIIIIIAAAAA11IIIIIIIIIIIIIIIAA
IIIIIIIIIIIIIIIIIIIAAAAA11IIIIIIIIIIIIIIAAAAA111IIIIIIIIIIIIIIAA
IIIIIIIIIIIIIIIIIIIAAAAA111IIIIIIIIIIIIIAAAAA111IIIIIIIIIIIIIIAA
IIIIIIIIIIIIIIIIIIIAAAAA111IIIIIIIIIIIIIAAAAAA111IIIIIIIIIIIIIAA
IIIIIIIIIIIIIIIIIIIAAAAAA111IIIIIIIIIIIIAAAAAA111IIIIIIIIIIIIIAA
IIIIIIIIIIIIIIIIIIIAAAAAA111IIIIIIIIIIIIAAAAAAA111IIIIIIIIIIIIAA
IIIIIIIIIIIIIIIIIIIAAAAAAA111IIIIIIIIIIIAAAAAAA111IIIIIIIIIIIIAA
IIIIIIIIIIIIIIIIIIIAAAAAAA111IIIIIIIIIIIAAAAAAAA111IIIIIIIIIIIAA
IIIIIIIIIIIIIIIIIIIAAAAAAAA111IIIIIIIIIIAAAAAAAA111IIIIIIIIIIIAA
IIIIIIIIIIIIIIIIIIIAAAAAAAA111IIIIIIIIIIAAAAAAAAA111IIIIIIIIIIAA
IIIIIIIIIIIIIIIIIIIAAAAAAAAA111IIIIIIIIIAAAAAAAAA111IIIIIIIIIIAA
IIIIIIIIIIIIIIIIIIIAAAAAAAAA111IIIIIIIIIAAAAAAAAAA111IIIIIIIIIAA
IIIIIIIIIIIIIIIIIIIAAAAAAAAAA11IIIIIIIIIAAAAAAAAAA111IIIIIIIIIAA
IIIIIIIIIIIIIIIIIIIAAAAAAAAAA11IIIIIIIIIAAAAAAAAAA11111IIIIIIIAA
IIIIIIIIIIIIIIIIIIIAAAAAAAAAA11111IIIIIIAAAAAAAAAA11111IIIIIIIAA
IIIIIIIIIIIIIIIIIIIAAAAAAAAAA11111IIIIIIAAAAAAAAAAA11111IIIIIIAA
IIIIIIIIIIIIIIIIIIIAAAAAAAAAAA11111IIIIIAAAAAAAAAAA11111IIIIIIAA
IIIIIIIIIIIIIIIIIIIAAAAAAAAAAA11111IIIIIAAAAAAAAAAAA1111IIIIIIAA
IIIIIIIIIIIIIIIIIIIAAAAAAAAAAA111111IIIIAAAAAAAAAAAA1111IIIIIIAA
IIIIIIIIIIIIIIIIIIIAAAAAAAAAAA111111IIIIAAAAAAAAAAAA111111IIIIAA
IIIIIIIIIIIIIIIIIIIAAAAAAAAAAAA111111IIIAAAAAAAAAAAA111111IIIIAA
IIIIIIIIIIIIIIIIIIIAAAAAAAAAAAA111111IIIAAAAAAAAAAAAA111111IIIAA
IIIIIIIIIIIIIIIIIIIAAAAAAAAAAAAA11111IIIAAAAAAAAAAAAA111111IIIAA
IIIIIIIIIIIIIIIIIIIAAAAAAAAAAAAA11111IIIAAAAAAAAAAAAAA11111IIIAA
IIIIIIIIIIIIIIIIIIIAAAAAAAAAAAAAA1111IIIAAAAAAAAAAAAAA11111IIIAA
IIIIIIIIIIIIIIIIIIIAAAAAAAAAAAAAA1111IIIAAAAAAAAAAAAAAA1111IIIAA
IIIIIIIIIIIIIIIIIIIAAAAAAAAAAAAAAA111IIIAAAAAAAAAAAAAAA1111IIIAA
IIIIIIIIIIIIIIIIIIIAAAAAAAAAAAAAAA111IIIAAAAAAAAAAAAAAAA111IIIAA
IIIIIIIIIIIIIIIIIIIAAAAAAAAAAAAAAAA111IIAAAAAAAAAAAAAAAA111IIIAA
IIIIIIIIIIIIIIIIIIIAAAAAAAAAAAAAAAA111IIAAAAAAAAAAAAAAAA11111IAA
IIIIIIIIIIIIIIIIIIIAAAAAAAAAAAAAAAA11111AAAAAAAAAAAAAAAA11111IAA
IIIIIIIIIIIIIIIIIIIAAAAAAAAAAAAAAAA11111AAAAAAAAAAAAAAAAA11111AA
IIIIIIIIIIIIIIIIIIIAAAAAAAAAAAAAAAAA1111AAAAAAAAAAAAAAAAA11111AA
IIIIIIIIIIIIIIIIIIIAAAAAAAAAAAAAAAAA1111AAAAAAAAAAAAAAAAAA1111AA
IIIIIIIIIIIIIIIIIIIAAAAAAAAAAAAAAAAAA111AAAAAAAAAAAAAAAAAA1111AA
IIIIIIIIIIIIIIIIIIIAAAAAAAAAAAAAAAAAA111AAAAAAAAAAAAAAAAAAA111AA
IIIIIIIIIIIIIIIIIIIAAAAAAAAAAAAAAAAAAA11AAAAAAAAAAAAAAAAAAA111AA
IIIIIIIIIIIIIIIIIIIAAAAAAAAAAAAAAAAAAA11AAAAAAAAAAAAAAAAAAAA11AA
IIIIIIIIIIIIIIIIIIIAAAAAAAAAAAAAAAAAAAA1AAAAAAAAAAAAAAAAAAAA11AA
IIIIIIIIIIIIIIIIIIIAAAAAAAAAAAAAAAAAAAA1AAAAAAAAAAAAAAAAAAAAA1AA
IIIIIIIIIIIIIIIIIIIAAAAAAAAAAAAAAAAAAAAAAAAAAAAAAAAAAAAAAAAAA1AA
IIIIIIIIIIIIIIIIIIIAAAAAAAAAAAAAAAAAAAAAAAAAAAAAAAAAAAAAAAAAAAAA
A11IIIIIIIIIIIIIIIIIIIIIIIIIIIIIIIIIIIIIIIIIIIIIIIIIIIIIIIIIIIII
A111IIIIIIIIIIIIIIIIIIIIIIIIIIIIIIIIIIIIIIIIIIIIIIIIIIIIIIIIIIII
AA111IIIIIIIIIIIIIIIIIIIIIIIIIIIIIIIIIIIIIIIIIIIIIIIIIIIIIIIIIII
AAA111IIIIIIIIIIIIIIIIIIIIIIIIIIIIIIIIIIIIIIIIIIIIIIIIIIIIIIIIII
AAAA111IIIIIIIIIIIIIIIIIIIIIIIIIIIIIIIIIIIIIIIIIIIIIIIIIIIIIIIII
AAAAA111IIIIIIIIIIIIIIIIIIIIIIIIIIIIIIIIIIIIIIIIIIIIIIIIIIIIIIII
AAAAAA111IIIIIIIIIIIIIIIIIIIIIIIIIIIIIIIIIIIIIIIIIIIIIIIIIIIIIII
AAAAAA1111IIIIIIIIIIIIIIIIIIIIIIIIIIIIIIIIIIIIIIIIIIIIIIIIIIIIII
AAAAAAA1111IIIIIIIIIIIIIIIIIIIIIIIIIIIIIIIIIIIIIIIIIIIIIIIIIIIII
AAAAAAAA1111IIIIIIIIIIIIIIIIIIIIIIIIIIIIIIIIIIIIIIIIIIIIIIIIIIII
AAAAAAAAA1111IIIIIIIIIIIIIIIIIIIIIIIIIIIIIIIIIIIIIIIIIIIIIIIIIII
AAAAAAAAAA1111IIIIIIIIIIIIIIIIIIIIIIIIIIIIIIIIIIIIIIIIIIIIIIIIII
AAAAAAAAAAA1111IIIIIIIIIIIIIIIIIIIIIIIIIIIIIIIIIIIIIIIIIIIIIIIII
AAAAAAAAAAAA1111IIIIIIIIIIIIIIIIIIIIIIIIIIIIIIIIIIIIIIIIIIIIIIII
AAAAAAAAAAAAA111IIIIIIIIIIIIIIIIIIIIIIIIIIIIIIIIIIIIIIIIIIIIIIII
AAAAAAAAAAAAAA11IIIIIIIIIIIIIIIIIIIIIIIIIIIIIIIIIIIIIIIIIIIIIIII
AAAAAAAAAAAAAA111IIIIIIIIIIIIIIIIIIIIIIIIIIIIIIIIIIIIIIIIIIIIIII
AAAAAAAAAAAAAAA11IIIIIIIIIIIIIIIIIIIIIIIIIIIIIIIIIIIIIIIIIIIIIII
AAAAAAAAAAAAAAA111IIIIIIIIIIIIIIIIIIIIIIIIIIIIIIIIIIIIIIIIIIIIII
AAAAAAAAAAAAAAAA11IIIIIIIIIIIIIIIIIIIIIIIIIIIIIIIIIIIIIIIIIIIIII
AAAAAAAAAAAAAAAA111IIIIIIIIIIIIIIIIIIIIIIIIIIIIIIIIIIIIIIIIIIIII
AAAAAAAAAAAAAAAAA111IIIIIIIIIIIIIIIIIIIIIIIIIIIIIIIIIIIIIIIIIIII
AAAAAAAAAAAAAAAAAA111IIIIIIIIIIIIIIIIIIIIIIIIIIIIIIIIIIIIIIIIIII
AAAAAAAAAAAAAAAAAAA111IIIIIIIIIIIIIIIIIIIIIIIIIIIIIIIIIIIIIIIIII
AAAAAAAAAAAAAAAAAAAA111IIIIIIIIIIIIIIIIIIIIIIIIIIIIIIIIIIIIIIIII
AAAAAAAAAAAAAAAAAAAAA111IIIIIIIIIIIIIIIIIIIIIIIIIIIIIIIIIIIIIIII
AAAAAAAAAAAAAAAAAAAAAA111IIIIIIIIIIIIIIIIIIIIIIIIIIIIIIIIIIIIIII
AAAAAAAAAAAAAAAAAAAAAAA111IIIIIIIIIIIIIIIIIIIIIIIIIIIIIIIIIIIIII
AAAAAAAAAAAAAAAAAAAAAAAA111IIIIIIIIIIIIIIIIIIIIIIIIIIIIIIIIIIIII
AAAAAAAAAAAAAAAAAAAAAAAAA111IIIIIIIIIIIIIIIIIIIIIIIIIIIIIIIIIIII
AAAAAAAAAAAAAAAAAAAAAAAAA1111IIIIIIIIIIIIIIIIIIIIIIIIIIIIIIIIIII
AAAAAAAAAAAAAAAAAAAAAAAAAA1111IIIIIIIIIIIIIIIIIIIIIIIIIIIIIIIIII
AAAAAAAAAAAAAAAAAAAAAAAAAAA1111IIIIIIIIIIIIIIIIIIIIIIIIIIIIIIIII
AAAAAAAAAAAAAAAAAAAAAAAAAAAA1111IIIIIIIIIIIIIIIIIIIIIIIIIIIIIIII
AAAAAAAAAAAAAAAAAAAAAAAAAAAAA111IIIIIIIIIIIIIIIIIIIIIIIIIIIIIIII
AAAAAAAAAAAAAAAAAAAAAAAAAAAAA1111IIIIIIIIIIIIIIIIIIIIIIIIIIIIIII
AAAAAAAAAAAAAAAAAAAAAAAAAAAAAA1111IIIIIIIIIIIIIIIIIIIIIIIIIIIIII
AAAAAAAAAAAAAAAAAAAAAAAAAAAAAAA111IIIIIIIIIIIIIIIIIIIIIIIIIIIIII
AAAAAAAAAAAAAAAAAAAAAAAAAAAAAAA1111IIIIIIIIIIIIIIIIIIIIIIIIIIIII
AAAAAAAAAAAAAAAAAAAAAAAAAAAAAAA1111111IIIIIIIIIIIIIIIIIIIIIIIIII
AAAAAAAAAAAAAAAAAAAAAAAAAAAAAAA11111111IIIIIIIIIIIIIIIIIIIIIIIII
AAAAAAAAAAAAAAAAAAAAAAAAAAAAAAA111111111IIIIIIIIIIIIIIIIIIIIIIII
AAAAAAAAAAAAAAAAAAAAAAAAAAAAAAAA111111111IIIIIIIIIIIIIIIIIIIIIII
AAAAAAAAAAAAAAAAAAAAAAAAAAAAAAAAA111111111IIIIIIIIIIIIIIIIIIIIII
AAAAAAAAAAAAAAAAAAAAAAAAAAAAAAAAAA111111111IIIIIIIIIIIIIIIIIIIII
AAAAAAAAAAAAAAAAAAAAAAAAAAAAAAAAAAA111111111IIIIIIIIIIIIIIIIIIII
AAAAAAAAAAAAAAAAAAAAAAAAAAAAAAAAAAAA111111111IIIIIIIIIIIIIIIIIII
AAAAAAAAAAAAAAAAAAAAAAAAAAAAAAAAAAAAA111111111IIIIIIIIIIIIIIIIII
AAAAAAAAAAAAAAAAAAAAAAAAAAAAAAAAAAAAAA111111111IIIIIIIIIIIIIIIII
AAAAAAAAAAAAAAAAAAAAAAAAAAAAAAAAAAAAAAA11111111IIIIIIIIIIIIIIIII
AAAAAAAAAAAAAAAAAAAAAAAAAAAAAAAAAAAAAAAA1111111IIIIIIIIIIIIIIIII
AAAAAAAAAAAAAAAAAAAAAAAAAAAAAAAAAAAAAAAAA111111IIIIIIIIIIIIIIIII
AAAAAAAAAAAAAAAAAAAAAAAAAAAAAAAAAAAAAAAAAA11111IIIIIIIIIIIIIIIII
AAAAAAAAAAAAAAAAAAAAAAAAAAAAAAAAAAAAAAAAAAA1111IIIIIIIIIIIIIIIII
AAAAAAAAAAAAAAAAAAAAAAAAAAAAAAAAAAAAAAAAAAAA111IIIIIIIIIIIIIIIII
AAAAAAAAAAAAAAAAAAAAAAAAAAAAAAAAAAAAAAAAAAAAA11IIIIIIIIIIIIIIIII
AAAAAAAAAAAAAAAAAAAAAAAAAAAAAAAAAAAAAAAAAAAAA111IIIIIIIIIIIIIIII
AAAAAAAAAAAAAAAAAAAAAAAAAAAAAAAAAAAAAAAAAAAAAA11IIIIIIIIIIIIIIII
AAAAAAAAAAAAAAAAAAAAAAAAAAAAAAAAAAAAAAAAAAAAAA111IIIIIIIIIIIIIII
AAAAAAAAAAAAAAAAAAAAAAAAAAAAAAAAAAAAAAAAAAAAAAA11IIIIIIIIIIIIIII
AAAAAAAAAAAAAAAAAAAAAAAAAAAAAAAAAAAAAAAAAAAAAAA111IIIIIIIIIIIIII
AAAAAAAAAAAAAAAAAAAAAAAAAAAAAAAAAAAAAAAAAAAAAAAA111IIIIIIIIIIIII
AAAAAAAAAAAAAAAAAAAAAAAAAAAAAAAAAAAAAAAAAAAAAAAAA111IIIIIIIIIIII
AAAAAAAAAAAAAAAAAAAAAAAAAAAAAAAAAAAAAAAAAAAAAAAAAA111IIIIIIIIIII
AAAAAAAAAAAAAAAAAAAAAAAAAAAAAAAAAAAAAAAAAAAAAAAAAA1111IIIIIIIIII
AAAAAAAAAAAAAAAAAAAAAAAAAAAAAAAAAAAAAAAAAAAAAAAAAAA1111IIIIIIIII
AAAAAAAAAAAAAAAAAAAAAAAAAAAAAAAAAAAAAAAAAAAAAAAAAAAA1111IIIIIIII
AAAAAAAAAAAAAAAAAAAAAAAAAAAAAAAAAAAAAAAAAAAAAAAAAAAAA1111IIIIIII
AAAAAAAAAAAAAAAAAAAAAAAAAAAAAAAAAAAAAAAAAAAAAAAAAAAAAA1111IIIIII
AAAAAAAAAAAAAAAAAAAAAAAAAAAAAAAAAAAAAAAAAAAAAAAAAAAAAAA1111IIIII
AAAAAAAAAAAAAAAAAAAAAAAAAAAAAAAAAAAAAAAAAAAAAAAAAAAAAAAA1111IIII
AAAAAAAAAAAAAAAAAAAAAAAAAAAAAAAAAAAAAAAAAAAAAAAAAAAAAAAAA111IIII
AAAAAAAAAAAAAAAAAAAAAAAAAAAAAAAAAAAAAAAAAAAAAAAAAAAAAAAAAA11IIII
AAAAAAAAAAAAAAAAAAAAAAAAAAAAAAAAAAAAAAAAAAAAAAAAAAAAAAAAAA111III
AAAAAAAAAAAAAAAAAAAAAAAAAAAAAAAAAAAAAAAAAAAAAAAAAAAAAAAAAAA111II
AAAAAAAAAAAAAAAAAAAAAAAAAAAAAAAAAAAAAAAAAAAAAAAAAAAAAAAAAAAA111I
AAAAAAAAAAAAAAAAAAAAAAAAAAAAAAAAAAAAAAAAAAAAAAAAAAAAAAAAAAAAA111
AAAAAAAAAAAAAAAAAAAAAAAAAAAAAAAAAAAAAAAAAAAAAAAAAAAAAAAAAAAAAA11
AAAAAAAAAAAAAAAAAAAAAAAAAAAAAAAAAAAAAAAAAAAAAAAAAAAAAAAAAAAAAAA1
AAAAAAAAAAAAAAAAAAAAAAAAAAAAAAAAAAAAAAAAAAAAAAAAAAAAAAAAAAAAAAAA
[MLOP] Prefetch Degree Mean: 3.72691
[MLOP] Prefetch Degree SD: 1.24222
[MLOP] Max Score Left Mean (%): 93.9595
[MLOP] Max Score Left SD (%): 10.5457
[MLOP] Max Score Right Mean (%): 98.1575
[MLOP] Max Score Right SD (%): 8.98361
LLC TOTAL     ACCESS:    1282643  HIT:     736465  MISS:     546178  HIT %:    57.4178  MISS %:    42.5822   MPKI: 2.7282
LLC LOAD      ACCESS:     623666  HIT:     609112  MISS:      14554  HIT %:    97.6664  MISS %:    2.33362   MPKI: 0.0726984
LLC RFO       ACCESS:     117915  HIT:        115  MISS:     117800  HIT %:  0.0975279  MISS %:    99.9025   MPKI: 0.588421
LLC PREFETCH  ACCESS:     407701  HIT:        463  MISS:     407238  HIT %:   0.113564  MISS %:    99.8864   MPKI: 2.03419
LLC WRITEBACK ACCESS:     122024  HIT:     116673  MISS:       5351  HIT %:    95.6148  MISS %:     4.3852   MPKI: 0.0267287

RAW hits: 812182
Loads Generated: 78449200
Loads sent to L1D: 77637025
Stores Generated: 16228664
Stores sent to L1D: 16228666

CPU 2 cumulative IPC: 1.29909 instructions: 200000002 cycles: 153954228
ITLB TOTAL     ACCESS:   28371839  HIT:   28371839  MISS:          0  HIT %:        100  MISS %:          0   MPKI: 0
ITLB LOAD      ACCESS:          0  HIT:          0  MISS:          0  HIT %:       -nan  MISS %:       -nan   MPKI: 0
ITLB RFO       ACCESS:          0  HIT:          0  MISS:          0  HIT %:       -nan  MISS %:       -nan   MPKI: 0
ITLB PREFETCH  ACCESS:          0  HIT:          0  MISS:          0  HIT %:       -nan  MISS %:       -nan   MPKI: 0
ITLB WRITEBACK ACCESS:          0  HIT:          0  MISS:          0  HIT %:       -nan  MISS %:       -nan   MPKI: 0
DTLB TOTAL     ACCESS:   52459025  HIT:   44754889  MISS:    7704136  HIT %:     85.314  MISS %:     14.686   MPKI: 38.5207
DTLB LOAD      ACCESS:          0  HIT:          0  MISS:          0  HIT %:       -nan  MISS %:       -nan   MPKI: 0
DTLB RFO       ACCESS:          0  HIT:          0  MISS:          0  HIT %:       -nan  MISS %:       -nan   MPKI: 0
DTLB PREFETCH  ACCESS:          0  HIT:          0  MISS:          0  HIT %:       -nan  MISS %:       -nan   MPKI: 0
DTLB WRITEBACK ACCESS:          0  HIT:          0  MISS:          0  HIT %:       -nan  MISS %:       -nan   MPKI: 0
STLB TOTAL     ACCESS:    8066786  HIT:    8058270  MISS:       8516  HIT %:    99.8944  MISS %:   0.105569   MPKI: 0.04258
STLB LOAD      ACCESS:          0  HIT:          0  MISS:          0  HIT %:       -nan  MISS %:       -nan   MPKI: 0
STLB RFO       ACCESS:          0  HIT:          0  MISS:          0  HIT %:       -nan  MISS %:       -nan   MPKI: 0
STLB PREFETCH  ACCESS:          0  HIT:          0  MISS:          0  HIT %:       -nan  MISS %:       -nan   MPKI: 0
STLB WRITEBACK ACCESS:          0  HIT:          0  MISS:          0  HIT %:       -nan  MISS %:       -nan   MPKI: 0
L1D TOTAL     ACCESS:   79058721  HIT:   63960793  MISS:   15097928  HIT %:    80.9029  MISS %:    19.0971   MPKI: 75.4896
L1D LOAD      ACCESS:   62649230  HIT:   49161104  MISS:   13488126  HIT %:    78.4704  MISS %:    21.5296   MPKI: 67.4406
L1D RFO       ACCESS:   15999280  HIT:   14797357  MISS:    1201923  HIT %:    92.4876  MISS %:    7.51236   MPKI: 6.00961
L1D PREFETCH  ACCESS:     410211  HIT:       2332  MISS:     407879  HIT %:   0.568488  MISS %:    99.4315   MPKI: 2.03939
L1D WRITEBACK ACCESS:          0  HIT:          0  MISS:          0  HIT %:       -nan  MISS %:       -nan   MPKI: 0
L1I TOTAL     ACCESS:   31593245  HIT:   26393234  MISS:    5200011  HIT %:    83.5408  MISS %:    16.4592   MPKI: 26.0001
L1I LOAD      ACCESS:   31593245  HIT:   26393234  MISS:    5200011  HIT %:    83.5408  MISS %:    16.4592   MPKI: 26.0001
L1I RFO       ACCESS:          0  HIT:          0  MISS:          0  HIT %:       -nan  MISS %:       -nan   MPKI: 0
L1I PREFETCH  ACCESS:          0  HIT:          0  MISS:          0  HIT %:       -nan  MISS %:       -nan   MPKI: 0
L1I WRITEBACK ACCESS:          0  HIT:          0  MISS:          0  HIT %:       -nan  MISS %:       -nan   MPKI: 0
L2C TOTAL     ACCESS:   21596020  HIT:   20408110  MISS:    1187910  HIT %:    94.4994  MISS %:     5.5006   MPKI: 5.93955
L2C LOAD      ACCESS:   18686565  HIT:   18039610  MISS:     646955  HIT %:    96.5379  MISS %:    3.46214   MPKI: 3.23477
L2C RFO       ACCESS:    1200702  HIT:    1081885  MISS:     118817  HIT %:    90.1044  MISS %:    9.89563   MPKI: 0.594085
L2C PREFETCH  ACCESS:     410376  HIT:       3223  MISS:     407153  HIT %:   0.785377  MISS %:    99.2146   MPKI: 2.03576
L2C WRITEBACK ACCESS:    1285559  HIT:    1281900  MISS:       3659  HIT %:    99.7154  MISS %:   0.284623   MPKI: 0.018295
PSCL5 TOTAL     ACCESS:       8516  HIT:       8516  MISS:          0  HIT %:        100  MISS %:          0   MPKI: 0
PSCL5 LOAD      ACCESS:          0  HIT:          0  MISS:          0  HIT %:       -nan  MISS %:       -nan   MPKI: 0
PSCL5 RFO       ACCESS:          0  HIT:          0  MISS:          0  HIT %:       -nan  MISS %:       -nan   MPKI: 0
PSCL5 PREFETCH  ACCESS:          0  HIT:          0  MISS:          0  HIT %:       -nan  MISS %:       -nan   MPKI: 0
PSCL5 WRITEBACK ACCESS:          0  HIT:          0  MISS:          0  HIT %:       -nan  MISS %:       -nan   MPKI: 0
PSCL4 TOTAL     ACCESS:       8516  HIT:       8516  MISS:          0  HIT %:        100  MISS %:          0   MPKI: 0
PSCL4 LOAD      ACCESS:          0  HIT:          0  MISS:          0  HIT %:       -nan  MISS %:       -nan   MPKI: 0
PSCL4 RFO       ACCESS:          0  HIT:          0  MISS:          0  HIT %:       -nan  MISS %:       -nan   MPKI: 0
PSCL4 PREFETCH  ACCESS:          0  HIT:          0  MISS:          0  HIT %:       -nan  MISS %:       -nan   MPKI: 0
PSCL4 WRITEBACK ACCESS:          0  HIT:          0  MISS:          0  HIT %:       -nan  MISS %:       -nan   MPKI: 0
PSCL3 TOTAL     ACCESS:       8516  HIT:       8516  MISS:          0  HIT %:        100  MISS %:          0   MPKI: 0
PSCL3 LOAD      ACCESS:          0  HIT:          0  MISS:          0  HIT %:       -nan  MISS %:       -nan   MPKI: 0
PSCL3 RFO       ACCESS:          0  HIT:          0  MISS:          0  HIT %:       -nan  MISS %:       -nan   MPKI: 0
PSCL3 PREFETCH  ACCESS:          0  HIT:          0  MISS:          0  HIT %:       -nan  MISS %:       -nan   MPKI: 0
PSCL3 WRITEBACK ACCESS:          0  HIT:          0  MISS:          0  HIT %:       -nan  MISS %:       -nan   MPKI: 0
PSCL2 TOTAL     ACCESS:       8516  HIT:       4205  MISS:       4311  HIT %:    49.3776  MISS %:    50.6224   MPKI: 0.021555
PSCL2 LOAD      ACCESS:          0  HIT:          0  MISS:          0  HIT %:       -nan  MISS %:       -nan   MPKI: 0
PSCL2 RFO       ACCESS:          0  HIT:          0  MISS:          0  HIT %:       -nan  MISS %:       -nan   MPKI: 0
PSCL2 PREFETCH  ACCESS:          0  HIT:          0  MISS:          0  HIT %:       -nan  MISS %:       -nan   MPKI: 0
PSCL2 WRITEBACK ACCESS:          0  HIT:          0  MISS:          0  HIT %:       -nan  MISS %:       -nan   MPKI: 0
=== CPU 2 L1D Prefetcher Statistics ===
[MLOP] History of tracked zone:
IIIIIIIIIIIIIIIIIIIIIIIIIIIIIIIIIIIIIIIIIIIIIIIIIIIIIIIIIIIIIIII
IIIIIIIIIIIIIIIIIIIIIIIIIIIIIIIIIIIIIIIIIIIIIIIIIIIIIIIIIIIIIIAI
IIIIIIIIIIIIIIIIIIIIIIIIIIIIIIIIIIIIIIIIAIIIIIIIIIIIIIIIIIIIIIAI
IIIIIIIIIIIIIIIIIIIAIIIIIIIIIIIIIIIIIIIIAIIIIIIIIIIIIIIIIIIIIIAI
IIIIIIIIIIIIIIIIIIIAIIIIIIIIIIIIIIIIIIIIAAIIIIIIIIIIIIIIIIIIIIAI
IIIIIIIIIIIIIIIIIIIAIIIIIIIIIIIIIIIIIIIIAAIIIIIIIIIIIIIIIIIIIIAA
IIIIIIIIIIIIIIIIIIIAAIIIIIIIIIIIIIIIIIIIAAIIIIIIIIIIIIIIIIIIIIAA
IIIIIIIIIIIIIIIIIIIAAIIIIIIIIIIIIIIIIIIIAA2IIIIIIIIIIIIIIIIIIIAA
IIIIIIIIIIIIIIIIIIIAA2IIIIIIIIIIIIIIIIIIAA2IIIIIIIIIIIIIIIIIIIAA
IIIIIIIIIIIIIIIIIIIAA2IIIIIIIIIIIIIIIIIIAAA2IIIIIIIIIIIIIIIIIIAA
IIIIIIIIIIIIIIIIIIIAAA2IIIIIIIIIIIIIIIIIAAA2IIIIIIIIIIIIIIIIIIAA
IIIIIIIIIIIIIIIIIIIAAA2IIIIIIIIIIIIIIIIIAAAAIIIIIIIIIIIIIIIIIIAA
IIIIIIIIIIIIIIIIIIIAAAAIIIIIIIIIIIIIIIIIAAAAIIIIIIIIIIIIIIIIIIAA
IIIIIIIIIIIIIIIIIIIAAAAIIIIIIIIIIIIIIIIIAAAA1IIIIIIIIIIIIIIIIIAA
IIIIIIIIIIIIIIIIIIIAAAAIIIIIIIIIIIIIIIIIAAAA11IIIIIIIIIIIIIIIIAA
IIIIIIIIIIIIIIIIIIIAAAA11IIIIIIIIIIIIIIIAAAA11IIIIIIIIIIIIIIIIAA
IIIIIIIIIIIIIIIIIIIAAAA11IIIIIIIIIIIIIIIAAAAA11IIIIIIIIIIIIIIIAA
IIIIIIIIIIIIIIIIIIIAAAAA11IIIIIIIIIIIIIIAAAAA11IIIIIIIIIIIIIIIAA
IIIIIIIIIIIIIIIIIIIAAAAA11IIIIIIIIIIIIIIAAAAA111IIIIIIIIIIIIIIAA
IIIIIIIIIIIIIIIIIIIAAAAA111IIIIIIIIIIIIIAAAAA111IIIIIIIIIIIIIIAA
IIIIIIIIIIIIIIIIIIIAAAAA111IIIIIIIIIIIIIAAAAAA111IIIIIIIIIIIIIAA
IIIIIIIIIIIIIIIIIIIAAAAAA111IIIIIIIIIIIIAAAAAA111IIIIIIIIIIIIIAA
IIIIIIIIIIIIIIIIIIIAAAAAA111IIIIIIIIIIIIAAAAAAA111IIIIIIIIIIIIAA
IIIIIIIIIIIIIIIIIIIAAAAAAA111IIIIIIIIIIIAAAAAAA111IIIIIIIIIIIIAA
IIIIIIIIIIIIIIIIIIIAAAAAAA111IIIIIIIIIIIAAAAAAAA111IIIIIIIIIIIAA
IIIIIIIIIIIIIIIIIIIAAAAAAAA111IIIIIIIIIIAAAAAAAA111IIIIIIIIIIIAA
IIIIIIIIIIIIIIIIIIIAAAAAAAA111IIIIIIIIIIAAAAAAAAA111IIIIIIIIIIAA
IIIIIIIIIIIIIIIIIIIAAAAAAAAA111IIIIIIIIIAAAAAAAAA111IIIIIIIIIIAA
IIIIIIIIIIIIIIIIIIIAAAAAAAAA111IIIIIIIIIAAAAAAAAAA111IIIIIIIIIAA
IIIIIIIIIIIIIIIIIIIAAAAAAAAAA11IIIIIIIIIAAAAAAAAAA111IIIIIIIIIAA
IIIIIIIIIIIIIIIIIIIAAAAAAAAAA11IIIIIIIIIAAAAAAAAAA1111IIIIIIIIAA
IIIIIIIIIIIIIIIIIIIAAAAAAAAAA111IIIIIIIIAAAAAAAAAA1111IIIIIIIIAA
IIIIIIIIIIIIIIIIIIIAAAAAAAAAA111IIIIIIIIAAAAAAAAAA11111IIIIIIIAA
IIIIIIIIIIIIIIIIIIIAAAAAAAAAA11111IIIIIIAAAAAAAAAA11111IIIIIIIAA
IIIIIIIIIIIIIIIIIIIAAAAAAAAAA11111IIIIIIAAAAAAAAAAA11111IIIIIIAA
IIIIIIIIIIIIIIIIIIIAAAAAAAAAAA11111IIIIIAAAAAAAAAAA11111IIIIIIAA
IIIIIIIIIIIIIIIIIIIAAAAAAAAAAA11111IIIIIAAAAAAAAAAAA1111IIIIIIAA
IIIIIIIIIIIIIIIIIIIAAAAAAAAAAA111111IIIIAAAAAAAAAAAA1111IIIIIIAA
IIIIIIIIIIIIIIIIIIIAAAAAAAAAAA111111IIIIAAAAAAAAAAAA111111IIIIAA
IIIIIIIIIIIIIIIIIIIAAAAAAAAAAAA111111IIIAAAAAAAAAAAA111111IIIIAA
IIIIIIIIIIIIIIIIIIIAAAAAAAAAAAA111111IIIAAAAAAAAAAAAA111111IIIAA
IIIIIIIIIIIIIIIIIIIAAAAAAAAAAAAA11111IIIAAAAAAAAAAAAA111111IIIAA
IIIIIIIIIIIIIIIIIIIAAAAAAAAAAAAA11111IIIAAAAAAAAAAAAAA11111IIIAA
IIIIIIIIIIIIIIIIIIIAAAAAAAAAAAAAA1111IIIAAAAAAAAAAAAAA11111IIIAA
IIIIIIIIIIIIIIIIIIIAAAAAAAAAAAAAA1111IIIAAAAAAAAAAAAAAA1111IIIAA
IIIIIIIIIIIIIIIIIIIAAAAAAAAAAAAAAA111IIIAAAAAAAAAAAAAAA1111IIIAA
IIIIIIIIIIIIIIIIIIIAAAAAAAAAAAAAAA111IIIAAAAAAAAAAAAAAAA111IIIAA
IIIIIIIIIIIIIIIIIIIAAAAAAAAAAAAAAAA111IIAAAAAAAAAAAAAAAA111IIIAA
IIIIIIIIIIIIIIIIIIIAAAAAAAAAAAAAAAA111IIAAAAAAAAAAAAAAAA1111IIAA
IIIIIIIIIIIIIIIIIIIAAAAAAAAAAAAAAAA111IIAAAAAAAAAAAAAAAA11111IAA
IIIIIIIIIIIIIIIIIIIAAAAAAAAAAAAAAAA1111IAAAAAAAAAAAAAAAA11111IAA
IIIIIIIIIIIIIIIIIIIAAAAAAAAAAAAAAAA11111AAAAAAAAAAAAAAAA11111IAA
IIIIIIIIIIIIIIIIIIIAAAAAAAAAAAAAAAA11111AAAAAAAAAAAAAAAAA11111AA
IIIIIIIIIIIIIIIIIIIAAAAAAAAAAAAAAAAA1111AAAAAAAAAAAAAAAAA11111AA
IIIIIIIIIIIIIIIIIIIAAAAAAAAAAAAAAAAA1111AAAAAAAAAAAAAAAAAA1111AA
IIIIIIIIIIIIIIIIIIIAAAAAAAAAAAAAAAAAA111AAAAAAAAAAAAAAAAAA1111AA
IIIIIIIIIIIIIIIIIIIAAAAAAAAAAAAAAAAAA111AAAAAAAAAAAAAAAAAAA111AA
IIIIIIIIIIIIIIIIIIIAAAAAAAAAAAAAAAAAAA11AAAAAAAAAAAAAAAAAAA111AA
IIIIIIIIIIIIIIIIIIIAAAAAAAAAAAAAAAAAAA11AAAAAAAAAAAAAAAAAAAA11AA
IIIIIIIIIIIIIIIIIIIAAAAAAAAAAAAAAAAAAAA1AAAAAAAAAAAAAAAAAAAA11AA
IIIIIIIIIIIIIIIIIIIAAAAAAAAAAAAAAAAAAAA1AAAAAAAAAAAAAAAAAAAAA1AA
IIIIIIIIIIIIIIIIIIIAAAAAAAAAAAAAAAAAAAAAAAAAAAAAAAAAAAAAAAAAA1AA
IIIIIIIIIIIIIIIIIIIAAAAAAAAAAAAAAAAAAAAAAAAAAAAAAAAAAAAAAAAAAAAA
A111IIIIIIIIIIIIIIIIIIIIIIIIIIIIIIIIIIIIIIIIIIIIIIIIIIIIIIIIIIII
AA111IIIIIIIIIIIIIIIIIIIIIIIIIIIIIIIIIIIIIIIIIIIIIIIIIIIIIIIIIII
AA1111IIIIIIIIIIIIIIIIIIIIIIIIIIIIIIIIIIIIIIIIIIIIIIIIIIIIIIIIII
AAA1111IIIIIIIIIIIIIIIIIIIIIIIIIIIIIIIIIIIIIIIIIIIIIIIIIIIIIIIII
AAAA1111IIIIIIIIIIIIIIIIIIIIIIIIIIIIIIIIIIIIIIIIIIIIIIIIIIIIIIII
AAAAA1111IIIIIIIIIIIIIIIIIIIIIIIIIIIIIIIIIIIIIIIIIIIIIIIIIIIIIII
AAAAAA1111IIIIIIIIIIIIIIIIIIIIIIIIIIIIIIIIIIIIIIIIIIIIIIIIIIIIII
AAAAAAA1111IIIIIIIIIIIIIIIIIIIIIIIIIIIIIIIIIIIIIIIIIIIIIIIIIIIII
AAAAAAAA1111IIIIIIIIIIIIIIIIIIIIIIIIIIIIIIIIIIIIIIIIIIIIIIIIIIII
AAAAAAAAA1111IIIIIIIIIIIIIIIIIIIIIIIIIIIIIIIIIIIIIIIIIIIIIIIIIII
AAAAAAAAAA1111IIIIIIIIIIIIIIIIIIIIIIIIIIIIIIIIIIIIIIIIIIIIIIIIII
AAAAAAAAAAA1111IIIIIIIIIIIIIIIIIIIIIIIIIIIIIIIIIIIIIIIIIIIIIIIII
AAAAAAAAAAAA1111IIIIIIIIIIIIIIIIIIIIIIIIIIIIIIIIIIIIIIIIIIIIIIII
AAAAAAAAAAAAA1111IIIIIIIIIIIIIIIIIIIIIIIIIIIIIIIIIIIIIIIIIIIIIII
AAAAAAAAAAAAAA111IIIIIIIIIIIIIIIIIIIIIIIIIIIIIIIIIIIIIIIIIIIIIII
AAAAAAAAAAAAAA1111IIIIIIIIIIIIIIIIIIIIIIIIIIIIIIIIIIIIIIIIIIIIII
AAAAAAAAAAAAAAA111IIIIIIIIIIIIIIIIIIIIIIIIIIIIIIIIIIIIIIIIIIIIII
AAAAAAAAAAAAAAAA111IIIIIIIIIIIIIIIIIIIIIIIIIIIIIIIIIIIIIIIIIIIII
AAAAAAAAAAAAAAAAA111IIIIIIIIIIIIIIIIIIIIIIIIIIIIIIIIIIIIIIIIIIII
AAAAAAAAAAAAAAAAAA111IIIIIIIIIIIIIIIIIIIIIIIIIIIIIIIIIIIIIIIIIII
AAAAAAAAAAAAAAAAAAA111IIIIIIIIIIIIIIIIIIIIIIIIIIIIIIIIIIIIIIIIII
AAAAAAAAAAAAAAAAAAAA111IIIIIIIIIIIIIIIIIIIIIIIIIIIIIIIIIIIIIIIII
AAAAAAAAAAAAAAAAAAAAA111IIIIIIIIIIIIIIIIIIIIIIIIIIIIIIIIIIIIIIII
AAAAAAAAAAAAAAAAAAAAAA111IIIIIIIIIIIIIIIIIIIIIIIIIIIIIIIIIIIIIII
AAAAAAAAAAAAAAAAAAAAAAA111IIIIIIIIIIIIIIIIIIIIIIIIIIIIIIIIIIIIII
AAAAAAAAAAAAAAAAAAAAAAAA111IIIIIIIIIIIIIIIIIIIIIIIIIIIIIIIIIIIII
AAAAAAAAAAAAAAAAAAAAAAAAA111IIIIIIIIIIIIIIIIIIIIIIIIIIIIIIIIIIII
AAAAAAAAAAAAAAAAAAAAAAAAAA111IIIIIIIIIIIIIIIIIIIIIIIIIIIIIIIIIII
AAAAAAAAAAAAAAAAAAAAAAAAAAA111IIIIIIIIIIIIIIIIIIIIIIIIIIIIIIIIII
AAAAAAAAAAAAAAAAAAAAAAAAAAA11111IIIIIIIIIIIIIIIIIIIIIIIIIIIIIIII
AAAAAAAAAAAAAAAAAAAAAAAAAAAA1111IIIIIIIIIIIIIIIIIIIIIIIIIIIIIIII
AAAAAAAAAAAAAAAAAAAAAAAAAAAA11111IIIIIIIIIIIIIIIIIIIIIIIIIIIIIII
AAAAAAAAAAAAAAAAAAAAAAAAAAAAA1111IIIIIIIIIIIIIIIIIIIIIIIIIIIIIII
AAAAAAAAAAAAAAAAAAAAAAAAAAAAA11111IIIIIIIIIIIIIIIIIIIIIIIIIIIIII
AAAAAAAAAAAAAAAAAAAAAAAAAAAAAA1111IIIIIIIIIIIIIIIIIIIIIIIIIIIIII
AAAAAAAAAAAAAAAAAAAAAAAAAAAAAA11111IIIIIIIIIIIIIIIIIIIIIIIIIIIII
AAAAAAAAAAAAAAAAAAAAAAAAAAAAAAA1111IIIIIIIIIIIIIIIIIIIIIIIIIIIII
AAAAAAAAAAAAAAAAAAAAAAAAAAAAAAA11111IIIIIIIIIIIIIIIIIIIIIIIIIIII
AAAAAAAAAAAAAAAAAAAAAAAAAAAAAAAA1111IIIIIIIIIIIIIIIIIIIIIIIIIIII
AAAAAAAAAAAAAAAAAAAAAAAAAAAAAAAA11111IIIIIIIIIIIIIIIIIIIIIIIIIII
AAAAAAAAAAAAAAAAAAAAAAAAAAAAAAAAA1111IIIIIIIIIIIIIIIIIIIIIIIIIII
AAAAAAAAAAAAAAAAAAAAAAAAAAAAAAAAA11111IIIIIIIIIIIIIIIIIIIIIIIIII
AAAAAAAAAAAAAAAAAAAAAAAAAAAAAAAAAA1111IIIIIIIIIIIIIIIIIIIIIIIIII
AAAAAAAAAAAAAAAAAAAAAAAAAAAAAAAAAAA111IIIIIIIIIIIIIIIIIIIIIIIIII
AAAAAAAAAAAAAAAAAAAAAAAAAAAAAAAAAAAA111IIIIIIIIIIIIIIIIIIIIIIIII
AAAAAAAAAAAAAAAAAAAAAAAAAAAAAAAAAAAAA111IIIIIIIIIIIIIIIIIIIIIIII
AAAAAAAAAAAAAAAAAAAAAAAAAAAAAAAAAAAAAA111IIIIIIIIIIIIIIIIIIIIIII
AAAAAAAAAAAAAAAAAAAAAAAAAAAAAAAAAAAAAAA111IIIIIIIIIIIIIIIIIIIIII
AAAAAAAAAAAAAAAAAAAAAAAAAAAAAAAAAAAAAAAA111IIIIIIIIIIIIIIIIIIIII
AAAAAAAAAAAAAAAAAAAAAAAAAAAAAAAAAAAAAAAAA111IIIIIIIIIIIIIIIIIIII
AAAAAAAAAAAAAAAAAAAAAAAAAAAAAAAAAAAAAAAAAA111IIIIIIIIIIIIIIIIIII
AAAAAAAAAAAAAAAAAAAAAAAAAAAAAAAAAAAAAAAAAAA111IIIIIIIIIIIIIIIIII
AAAAAAAAAAAAAAAAAAAAAAAAAAAAAAAAAAAAAAAAAAAA111IIIIIIIIIIIIIIIII
AAAAAAAAAAAAAAAAAAAAAAAAAAAAAAAAAAAAAAAAAAAAA111IIIIIIIIIIIIIIII
AAAAAAAAAAAAAAAAAAAAAAAAAAAAAAAAAAAAAAAAAAAAAA111IIIIIIIIIIIIIII
AAAAAAAAAAAAAAAAAAAAAAAAAAAAAAAAAAAAAAAAAAAAAA1111IIIIIIIIIIIIII
AAAAAAAAAAAAAAAAAAAAAAAAAAAAAAAAAAAAAAAAAAAAAAA1111IIIIIIIIIIIII
AAAAAAAAAAAAAAAAAAAAAAAAAAAAAAAAAAAAAAAAAAAAAAAA1111IIIIIIIIIIII
AAAAAAAAAAAAAAAAAAAAAAAAAAAAAAAAAAAAAAAAAAAAAAAAA1111IIIIIIIIIII
AAAAAAAAAAAAAAAAAAAAAAAAAAAAAAAAAAAAAAAAAAAAAAAAAA1111IIIIIIIIII
AAAAAAAAAAAAAAAAAAAAAAAAAAAAAAAAAAAAAAAAAAAAAAAAAAA1111IIIIIIIII
AAAAAAAAAAAAAAAAAAAAAAAAAAAAAAAAAAAAAAAAAAAAAAAAAAAA1111IIIIIIII
AAAAAAAAAAAAAAAAAAAAAAAAAAAAAAAAAAAAAAAAAAAAAAAAAAAAA1111IIIIIII
AAAAAAAAAAAAAAAAAAAAAAAAAAAAAAAAAAAAAAAAAAAAAAAAAAAAAA1111IIIIII
AAAAAAAAAAAAAAAAAAAAAAAAAAAAAAAAAAAAAAAAAAAAAAAAAAAAAAA1111IIIII
AAAAAAAAAAAAAAAAAAAAAAAAAAAAAAAAAAAAAAAAAAAAAAAAAAAAAAAA1111IIII
AAAAAAAAAAAAAAAAAAAAAAAAAAAAAAAAAAAAAAAAAAAAAAAAAAAAAAAAA1111III
AAAAAAAAAAAAAAAAAAAAAAAAAAAAAAAAAAAAAAAAAAAAAAAAAAAAAAAAAA1111II
AAAAAAAAAAAAAAAAAAAAAAAAAAAAAAAAAAAAAAAAAAAAAAAAAAAAAAAAAAA111II
AAAAAAAAAAAAAAAAAAAAAAAAAAAAAAAAAAAAAAAAAAAAAAAAAAAAAAAAAAAA111I
AAAAAAAAAAAAAAAAAAAAAAAAAAAAAAAAAAAAAAAAAAAAAAAAAAAAAAAAAAAAA111
AAAAAAAAAAAAAAAAAAAAAAAAAAAAAAAAAAAAAAAAAAAAAAAAAAAAAAAAAAAAAA11
AAAAAAAAAAAAAAAAAAAAAAAAAAAAAAAAAAAAAAAAAAAAAAAAAAAAAAAAAAAAAAA1
AAAAAAAAAAAAAAAAAAAAAAAAAAAAAAAAAAAAAAAAAAAAAAAAAAAAAAAAAAAAAAAA
[MLOP] Prefetch Degree Mean: 3.74751
[MLOP] Prefetch Degree SD: 1.26187
[MLOP] Max Score Left Mean (%): 93.9332
[MLOP] Max Score Left SD (%): 10.499
[MLOP] Max Score Right Mean (%): 98.1583
[MLOP] Max Score Right SD (%): 8.98709
LLC TOTAL     ACCESS:    1306209  HIT:     762185  MISS:     544024  HIT %:    58.3509  MISS %:    41.6491   MPKI: 2.72012
LLC LOAD      ACCESS:     646954  HIT:     632729  MISS:      14225  HIT %:    97.8012  MISS %:    2.19877   MPKI: 0.071125
LLC RFO       ACCESS:     118800  HIT:       1100  MISS:     117700  HIT %:   0.925926  MISS %:    99.0741   MPKI: 0.5885
LLC PREFETCH  ACCESS:     407153  HIT:        437  MISS:     406716  HIT %:   0.107331  MISS %:    99.8927   MPKI: 2.03358
LLC WRITEBACK ACCESS:     121976  HIT:     117802  MISS:       4174  HIT %:     96.578  MISS %:    3.42198   MPKI: 0.02087

RAW hits: 811436
Loads Generated: 78371990
Loads sent to L1D: 77560554
Stores Generated: 16212580
Stores sent to L1D: 16212582

CPU 3 cumulative IPC: 1.29932 instructions: 200036147 cycles: 153954228
ITLB TOTAL     ACCESS:   28377821  HIT:   28377821  MISS:          0  HIT %:        100  MISS %:          0   MPKI: 0
ITLB LOAD      ACCESS:          0  HIT:          0  MISS:          0  HIT %:       -nan  MISS %:       -nan   MPKI: 0
ITLB RFO       ACCESS:          0  HIT:          0  MISS:          0  HIT %:       -nan  MISS %:       -nan   MPKI: 0
ITLB PREFETCH  ACCESS:          0  HIT:          0  MISS:          0  HIT %:       -nan  MISS %:       -nan   MPKI: 0
ITLB WRITEBACK ACCESS:          0  HIT:          0  MISS:          0  HIT %:       -nan  MISS %:       -nan   MPKI: 0
DTLB TOTAL     ACCESS:   52466115  HIT:   44760706  MISS:    7705409  HIT %:    85.3136  MISS %:    14.6864   MPKI: 38.5201
DTLB LOAD      ACCESS:          0  HIT:          0  MISS:          0  HIT %:       -nan  MISS %:       -nan   MPKI: 0
DTLB RFO       ACCESS:          0  HIT:          0  MISS:          0  HIT %:       -nan  MISS %:       -nan   MPKI: 0
DTLB PREFETCH  ACCESS:          0  HIT:          0  MISS:          0  HIT %:       -nan  MISS %:       -nan   MPKI: 0
DTLB WRITEBACK ACCESS:          0  HIT:          0  MISS:          0  HIT %:       -nan  MISS %:       -nan   MPKI: 0
STLB TOTAL     ACCESS:    8069336  HIT:    8060820  MISS:       8516  HIT %:    99.8945  MISS %:   0.105535   MPKI: 0.0425723
STLB LOAD      ACCESS:          0  HIT:          0  MISS:          0  HIT %:       -nan  MISS %:       -nan   MPKI: 0
STLB RFO       ACCESS:          0  HIT:          0  MISS:          0  HIT %:       -nan  MISS %:       -nan   MPKI: 0
STLB PREFETCH  ACCESS:          0  HIT:          0  MISS:          0  HIT %:       -nan  MISS %:       -nan   MPKI: 0
STLB WRITEBACK ACCESS:          0  HIT:          0  MISS:          0  HIT %:       -nan  MISS %:       -nan   MPKI: 0
L1D TOTAL     ACCESS:   79069610  HIT:   63969951  MISS:   15099659  HIT %:    80.9033  MISS %:    19.0967   MPKI: 75.4847
L1D LOAD      ACCESS:   62657529  HIT:   49167407  MISS:   13490122  HIT %:    78.4701  MISS %:    21.5299   MPKI: 67.4384
L1D RFO       ACCESS:   16002228  HIT:   14800171  MISS:    1202057  HIT %:    92.4882  MISS %:    7.51181   MPKI: 6.0092
L1D PREFETCH  ACCESS:     409853  HIT:       2373  MISS:     407480  HIT %:   0.578988  MISS %:     99.421   MPKI: 2.03703
L1D WRITEBACK ACCESS:          0  HIT:          0  MISS:          0  HIT %:       -nan  MISS %:       -nan   MPKI: 0
L1I TOTAL     ACCESS:   31600143  HIT:   26399201  MISS:    5200942  HIT %:    83.5414  MISS %:    16.4586   MPKI: 26
L1I LOAD      ACCESS:   31600143  HIT:   26399201  MISS:    5200942  HIT %:    83.5414  MISS %:    16.4586   MPKI: 26
L1I RFO       ACCESS:          0  HIT:          0  MISS:          0  HIT %:       -nan  MISS %:       -nan   MPKI: 0
L1I PREFETCH  ACCESS:          0  HIT:          0  MISS:          0  HIT %:       -nan  MISS %:       -nan   MPKI: 0
L1I WRITEBACK ACCESS:          0  HIT:          0  MISS:          0  HIT %:       -nan  MISS %:       -nan   MPKI: 0
L2C TOTAL     ACCESS:   21599074  HIT:   20426288  MISS:    1172786  HIT %:    94.5702  MISS %:     5.4298   MPKI: 5.86287
L2C LOAD      ACCESS:   18689473  HIT:   18058496  MISS:     630977  HIT %:    96.6239  MISS %:    3.37611   MPKI: 3.15431
L2C RFO       ACCESS:    1200740  HIT:    1082002  MISS:     118738  HIT %:    90.1113  MISS %:    9.88874   MPKI: 0.593583
L2C PREFETCH  ACCESS:     410269  HIT:       3246  MISS:     407023  HIT %:   0.791188  MISS %:    99.2088   MPKI: 2.03475
L2C WRITEBACK ACCESS:    1285774  HIT:    1280967  MISS:       4807  HIT %:    99.6261  MISS %:    0.37386   MPKI: 0.0240307
PSCL5 TOTAL     ACCESS:       8516  HIT:       8516  MISS:          0  HIT %:        100  MISS %:          0   MPKI: 0
PSCL5 LOAD      ACCESS:          0  HIT:          0  MISS:          0  HIT %:       -nan  MISS %:       -nan   MPKI: 0
PSCL5 RFO       ACCESS:          0  HIT:          0  MISS:          0  HIT %:       -nan  MISS %:       -nan   MPKI: 0
PSCL5 PREFETCH  ACCESS:          0  HIT:          0  MISS:          0  HIT %:       -nan  MISS %:       -nan   MPKI: 0
PSCL5 WRITEBACK ACCESS:          0  HIT:          0  MISS:          0  HIT %:       -nan  MISS %:       -nan   MPKI: 0
PSCL4 TOTAL     ACCESS:       8516  HIT:       8516  MISS:          0  HIT %:        100  MISS %:          0   MPKI: 0
PSCL4 LOAD      ACCESS:          0  HIT:          0  MISS:          0  HIT %:       -nan  MISS %:       -nan   MPKI: 0
PSCL4 RFO       ACCESS:          0  HIT:          0  MISS:          0  HIT %:       -nan  MISS %:       -nan   MPKI: 0
PSCL4 PREFETCH  ACCESS:          0  HIT:          0  MISS:          0  HIT %:       -nan  MISS %:       -nan   MPKI: 0
PSCL4 WRITEBACK ACCESS:          0  HIT:          0  MISS:          0  HIT %:       -nan  MISS %:       -nan   MPKI: 0
PSCL3 TOTAL     ACCESS:       8516  HIT:       8516  MISS:          0  HIT %:        100  MISS %:          0   MPKI: 0
PSCL3 LOAD      ACCESS:          0  HIT:          0  MISS:          0  HIT %:       -nan  MISS %:       -nan   MPKI: 0
PSCL3 RFO       ACCESS:          0  HIT:          0  MISS:          0  HIT %:       -nan  MISS %:       -nan   MPKI: 0
PSCL3 PREFETCH  ACCESS:          0  HIT:          0  MISS:          0  HIT %:       -nan  MISS %:       -nan   MPKI: 0
PSCL3 WRITEBACK ACCESS:          0  HIT:          0  MISS:          0  HIT %:       -nan  MISS %:       -nan   MPKI: 0
PSCL2 TOTAL     ACCESS:       8516  HIT:       4205  MISS:       4311  HIT %:    49.3776  MISS %:    50.6224   MPKI: 0.0215511
PSCL2 LOAD      ACCESS:          0  HIT:          0  MISS:          0  HIT %:       -nan  MISS %:       -nan   MPKI: 0
PSCL2 RFO       ACCESS:          0  HIT:          0  MISS:          0  HIT %:       -nan  MISS %:       -nan   MPKI: 0
PSCL2 PREFETCH  ACCESS:          0  HIT:          0  MISS:          0  HIT %:       -nan  MISS %:       -nan   MPKI: 0
PSCL2 WRITEBACK ACCESS:          0  HIT:          0  MISS:          0  HIT %:       -nan  MISS %:       -nan   MPKI: 0
=== CPU 3 L1D Prefetcher Statistics ===
[MLOP] History of tracked zone:
IIIIIIIIIIIIIIIIIIIIIIIIIIIIIIIIIIIIIIIIIIIIIIIIIIIIIIIIIIIIIIII
IIIIIIIIIIIIIIIIIIIIIIIIIIIIIIIIIIIIIIIIIIIIIIIIIIIIIIIIIIIIIIAI
IIIIIIIIIIIIIIIIIIIIIIIIIIIIIIIIIIIIIIIIAIIIIIIIIIIIIIIIIIIIIIAI
IIIIIIIIIIIIIIIIIIIAIIIIIIIIIIIIIIIIIIIIAIIIIIIIIIIIIIIIIIIIIIAI
IIIIIIIIIIIIIIIIIIIAIIIIIIIIIIIIIIIIIIIIAAIIIIIIIIIIIIIIIIIIIIAI
IIIIIIIIIIIIIIIIIIIAIIIIIIIIIIIIIIIIIIIIAAIIIIIIIIIIIIIIIIIIIIAA
IIIIIIIIIIIIIIIIIIIAAIIIIIIIIIIIIIIIIIIIAAIIIIIIIIIIIIIIIIIIIIAA
IIIIIIIIIIIIIIIIIIIAAIIIIIIIIIIIIIIIIIIIAA2IIIIIIIIIIIIIIIIIIIAA
IIIIIIIIIIIIIIIIIIIAA2IIIIIIIIIIIIIIIIIIAA2IIIIIIIIIIIIIIIIIIIAA
IIIIIIIIIIIIIIIIIIIAA2IIIIIIIIIIIIIIIIIIAAA2IIIIIIIIIIIIIIIIIIAA
IIIIIIIIIIIIIIIIIIIAAA2IIIIIIIIIIIIIIIIIAAA2IIIIIIIIIIIIIIIIIIAA
IIIIIIIIIIIIIIIIIIIAAA2IIIIIIIIIIIIIIIIIAAAAIIIIIIIIIIIIIIIIIIAA
IIIIIIIIIIIIIIIIIIIAAAAIIIIIIIIIIIIIIIIIAAAAIIIIIIIIIIIIIIIIIIAA
IIIIIIIIIIIIIIIIIIIAAAAIIIIIIIIIIIIIIIIIAAAA11IIIIIIIIIIIIIIIIAA
IIIIIIIIIIIIIIIIIIIAAAA11IIIIIIIIIIIIIIIAAAA11IIIIIIIIIIIIIIIIAA
IIIIIIIIIIIIIIIIIIIAAAA11IIIIIIIIIIIIIIIAAAAA11IIIIIIIIIIIIIIIAA
IIIIIIIIIIIIIIIIIIIAAAAA11IIIIIIIIIIIIIIAAAAA11IIIIIIIIIIIIIIIAA
IIIIIIIIIIIIIIIIIIIAAAAA11IIIIIIIIIIIIIIAAAAA111IIIIIIIIIIIIIIAA
IIIIIIIIIIIIIIIIIIIAAAAA111IIIIIIIIIIIIIAAAAA111IIIIIIIIIIIIIIAA
IIIIIIIIIIIIIIIIIIIAAAAA111IIIIIIIIIIIIIAAAAAA111IIIIIIIIIIIIIAA
IIIIIIIIIIIIIIIIIIIAAAAAA111IIIIIIIIIIIIAAAAAA111IIIIIIIIIIIIIAA
IIIIIIIIIIIIIIIIIIIAAAAAA111IIIIIIIIIIIIAAAAAAA111IIIIIIIIIIIIAA
IIIIIIIIIIIIIIIIIIIAAAAAAA111IIIIIIIIIIIAAAAAAA111IIIIIIIIIIIIAA
IIIIIIIIIIIIIIIIIIIAAAAAAA111IIIIIIIIIIIAAAAAAAA111IIIIIIIIIIIAA
IIIIIIIIIIIIIIIIIIIAAAAAAAA111IIIIIIIIIIAAAAAAAA111IIIIIIIIIIIAA
IIIIIIIIIIIIIIIIIIIAAAAAAAA111IIIIIIIIIIAAAAAAAAA111IIIIIIIIIIAA
IIIIIIIIIIIIIIIIIIIAAAAAAAAA111IIIIIIIIIAAAAAAAAA111IIIIIIIIIIAA
IIIIIIIIIIIIIIIIIIIAAAAAAAAA111IIIIIIIIIAAAAAAAAAA111IIIIIIIIIAA
IIIIIIIIIIIIIIIIIIIAAAAAAAAAA11IIIIIIIIIAAAAAAAAAA111IIIIIIIIIAA
IIIIIIIIIIIIIIIIIIIAAAAAAAAAA1111IIIIIIIAAAAAAAAAA111IIIIIIIIIAA
IIIIIIIIIIIIIIIIIIIAAAAAAAAAA1111IIIIIIIAAAAAAAAAA11111IIIIIIIAA
IIIIIIIIIIIIIIIIIIIAAAAAAAAAA11111IIIIIIAAAAAAAAAA11111IIIIIIIAA
IIIIIIIIIIIIIIIIIIIAAAAAAAAAA11111IIIIIIAAAAAAAAAAA11111IIIIIIAA
IIIIIIIIIIIIIIIIIIIAAAAAAAAAAA11111IIIIIAAAAAAAAAAA11111IIIIIIAA
IIIIIIIIIIIIIIIIIIIAAAAAAAAAAA11111IIIIIAAAAAAAAAAAA1111IIIIIIAA
IIIIIIIIIIIIIIIIIIIAAAAAAAAAAA111111IIIIAAAAAAAAAAAA1111IIIIIIAA
IIIIIIIIIIIIIIIIIIIAAAAAAAAAAA111111IIIIAAAAAAAAAAAA111111IIIIAA
IIIIIIIIIIIIIIIIIIIAAAAAAAAAAAA111111IIIAAAAAAAAAAAA111111IIIIAA
IIIIIIIIIIIIIIIIIIIAAAAAAAAAAAA111111IIIAAAAAAAAAAAAA111111IIIAA
IIIIIIIIIIIIIIIIIIIAAAAAAAAAAAAA11111IIIAAAAAAAAAAAAA111111IIIAA
IIIIIIIIIIIIIIIIIIIAAAAAAAAAAAAA11111IIIAAAAAAAAAAAAAA11111IIIAA
IIIIIIIIIIIIIIIIIIIAAAAAAAAAAAAAA1111IIIAAAAAAAAAAAAAA11111IIIAA
IIIIIIIIIIIIIIIIIIIAAAAAAAAAAAAAA1111IIIAAAAAAAAAAAAAAA1111IIIAA
IIIIIIIIIIIIIIIIIIIAAAAAAAAAAAAAAA111IIIAAAAAAAAAAAAAAA1111IIIAA
IIIIIIIIIIIIIIIIIIIAAAAAAAAAAAAAAA111IIIAAAAAAAAAAAAAAAA111IIIAA
IIIIIIIIIIIIIIIIIIIAAAAAAAAAAAAAAAA111IIAAAAAAAAAAAAAAAA111IIIAA
IIIIIIIIIIIIIIIIIIIAAAAAAAAAAAAAAAA111IIAAAAAAAAAAAAAAAA11111IAA
IIIIIIIIIIIIIIIIIIIAAAAAAAAAAAAAAAA11111AAAAAAAAAAAAAAAA11111IAA
IIIIIIIIIIIIIIIIIIIAAAAAAAAAAAAAAAA11111AAAAAAAAAAAAAAAAA11111AA
IIIIIIIIIIIIIIIIIIIAAAAAAAAAAAAAAAAA1111AAAAAAAAAAAAAAAAA11111AA
IIIIIIIIIIIIIIIIIIIAAAAAAAAAAAAAAAAA1111AAAAAAAAAAAAAAAAAA1111AA
IIIIIIIIIIIIIIIIIIIAAAAAAAAAAAAAAAAAA111AAAAAAAAAAAAAAAAAA1111AA
IIIIIIIIIIIIIIIIIIIAAAAAAAAAAAAAAAAAA111AAAAAAAAAAAAAAAAAAA111AA
IIIIIIIIIIIIIIIIIIIAAAAAAAAAAAAAAAAAAA11AAAAAAAAAAAAAAAAAAA111AA
IIIIIIIIIIIIIIIIIIIAAAAAAAAAAAAAAAAAAA11AAAAAAAAAAAAAAAAAAAA11AA
IIIIIIIIIIIIIIIIIIIAAAAAAAAAAAAAAAAAAAA1AAAAAAAAAAAAAAAAAAAA11AA
IIIIIIIIIIIIIIIIIIIAAAAAAAAAAAAAAAAAAAA1AAAAAAAAAAAAAAAAAAAAA1AA
IIIIIIIIIIIIIIIIIIIAAAAAAAAAAAAAAAAAAAAAAAAAAAAAAAAAAAAAAAAAA1AA
IIIIIIIIIIIIIIIIIIIAAAAAAAAAAAAAAAAAAAAAAAAAAAAAAAAAAAAAAAAAAAAA
A111IIIIIIIIIIIIIIIIIIIIIIIIIIIIIIIIIIIIIIIIIIIIIIIIIIIIIIIIIIII
AA111IIIIIIIIIIIIIIIIIIIIIIIIIIIIIIIIIIIIIIIIIIIIIIIIIIIIIIIIIII
AA1111IIIIIIIIIIIIIIIIIIIIIIIIIIIIIIIIIIIIIIIIIIIIIIIIIIIIIIIIII
AAA1111IIIIIIIIIIIIIIIIIIIIIIIIIIIIIIIIIIIIIIIIIIIIIIIIIIIIIIIII
AAAA1111IIIIIIIIIIIIIIIIIIIIIIIIIIIIIIIIIIIIIIIIIIIIIIIIIIIIIIII
AAAAA111IIIIIIIIIIIIIIIIIIIIIIIIIIIIIIIIIIIIIIIIIIIIIIIIIIIIIIII
AAAAA1111IIIIIIIIIIIIIIIIIIIIIIIIIIIIIIIIIIIIIIIIIIIIIIIIIIIIIII
AAAAAA1111IIIIIIIIIIIIIIIIIIIIIIIIIIIIIIIIIIIIIIIIIIIIIIIIIIIIII
AAAAAAA1111IIIIIIIIIIIIIIIIIIIIIIIIIIIIIIIIIIIIIIIIIIIIIIIIIIIII
AAAAAAAA1111IIIIIIIIIIIIIIIIIIIIIIIIIIIIIIIIIIIIIIIIIIIIIIIIIIII
AAAAAAAAA1111IIIIIIIIIIIIIIIIIIIIIIIIIIIIIIIIIIIIIIIIIIIIIIIIIII
AAAAAAAAAA1111IIIIIIIIIIIIIIIIIIIIIIIIIIIIIIIIIIIIIIIIIIIIIIIIII
AAAAAAAAAAA1111IIIIIIIIIIIIIIIIIIIIIIIIIIIIIIIIIIIIIIIIIIIIIIIII
AAAAAAAAAAAA1111IIIIIIIIIIIIIIIIIIIIIIIIIIIIIIIIIIIIIIIIIIIIIIII
AAAAAAAAAAAAA1111IIIIIIIIIIIIIIIIIIIIIIIIIIIIIIIIIIIIIIIIIIIIIII
AAAAAAAAAAAAAA111IIIIIIIIIIIIIIIIIIIIIIIIIIIIIIIIIIIIIIIIIIIIIII
AAAAAAAAAAAAAA1111IIIIIIIIIIIIIIIIIIIIIIIIIIIIIIIIIIIIIIIIIIIIII
AAAAAAAAAAAAAAA111IIIIIIIIIIIIIIIIIIIIIIIIIIIIIIIIIIIIIIIIIIIIII
AAAAAAAAAAAAAAAA11IIIIIIIIIIIIIIIIIIIIIIIIIIIIIIIIIIIIIIIIIIIIII
AAAAAAAAAAAAAAAA111IIIIIIIIIIIIIIIIIIIIIIIIIIIIIIIIIIIIIIIIIIIII
AAAAAAAAAAAAAAAAA111IIIIIIIIIIIIIIIIIIIIIIIIIIIIIIIIIIIIIIIIIIII
AAAAAAAAAAAAAAAAAA111IIIIIIIIIIIIIIIIIIIIIIIIIIIIIIIIIIIIIIIIIII
AAAAAAAAAAAAAAAAAAA111IIIIIIIIIIIIIIIIIIIIIIIIIIIIIIIIIIIIIIIIII
AAAAAAAAAAAAAAAAAAAA111IIIIIIIIIIIIIIIIIIIIIIIIIIIIIIIIIIIIIIIII
AAAAAAAAAAAAAAAAAAAAA111IIIIIIIIIIIIIIIIIIIIIIIIIIIIIIIIIIIIIIII
AAAAAAAAAAAAAAAAAAAAAA111IIIIIIIIIIIIIIIIIIIIIIIIIIIIIIIIIIIIIII
AAAAAAAAAAAAAAAAAAAAAAA111IIIIIIIIIIIIIIIIIIIIIIIIIIIIIIIIIIIIII
AAAAAAAAAAAAAAAAAAAAAAAA111IIIIIIIIIIIIIIIIIIIIIIIIIIIIIIIIIIIII
AAAAAAAAAAAAAAAAAAAAAAAAA111IIIIIIIIIIIIIIIIIIIIIIIIIIIIIIIIIIII
AAAAAAAAAAAAAAAAAAAAAAAAAA111IIIIIIIIIIIIIIIIIIIIIIIIIIIIIIIIIII
AAAAAAAAAAAAAAAAAAAAAAAAAAA111IIIIIIIIIIIIIIIIIIIIIIIIIIIIIIIIII
AAAAAAAAAAAAAAAAAAAAAAAAAAA11111IIIIIIIIIIIIIIIIIIIIIIIIIIIIIIII
AAAAAAAAAAAAAAAAAAAAAAAAAAAA1111IIIIIIIIIIIIIIIIIIIIIIIIIIIIIIII
AAAAAAAAAAAAAAAAAAAAAAAAAAAA11111IIIIIIIIIIIIIIIIIIIIIIIIIIIIIII
AAAAAAAAAAAAAAAAAAAAAAAAAAAAA1111IIIIIIIIIIIIIIIIIIIIIIIIIIIIIII
AAAAAAAAAAAAAAAAAAAAAAAAAAAAA11111IIIIIIIIIIIIIIIIIIIIIIIIIIIIII
AAAAAAAAAAAAAAAAAAAAAAAAAAAAAA1111IIIIIIIIIIIIIIIIIIIIIIIIIIIIII
AAAAAAAAAAAAAAAAAAAAAAAAAAAAAA11111IIIIIIIIIIIIIIIIIIIIIIIIIIIII
AAAAAAAAAAAAAAAAAAAAAAAAAAAAAAA1111IIIIIIIIIIIIIIIIIIIIIIIIIIIII
AAAAAAAAAAAAAAAAAAAAAAAAAAAAAAA11111IIIIIIIIIIIIIIIIIIIIIIIIIIII
AAAAAAAAAAAAAAAAAAAAAAAAAAAAAAAA1111IIIIIIIIIIIIIIIIIIIIIIIIIIII
AAAAAAAAAAAAAAAAAAAAAAAAAAAAAAAA11111IIIIIIIIIIIIIIIIIIIIIIIIIII
AAAAAAAAAAAAAAAAAAAAAAAAAAAAAAAAA11111IIIIIIIIIIIIIIIIIIIIIIIIII
AAAAAAAAAAAAAAAAAAAAAAAAAAAAAAAAAA1111IIIIIIIIIIIIIIIIIIIIIIIIII
AAAAAAAAAAAAAAAAAAAAAAAAAAAAAAAAAAA111IIIIIIIIIIIIIIIIIIIIIIIIII
AAAAAAAAAAAAAAAAAAAAAAAAAAAAAAAAAAAA111IIIIIIIIIIIIIIIIIIIIIIIII
AAAAAAAAAAAAAAAAAAAAAAAAAAAAAAAAAAAAA111IIIIIIIIIIIIIIIIIIIIIIII
AAAAAAAAAAAAAAAAAAAAAAAAAAAAAAAAAAAAAA111IIIIIIIIIIIIIIIIIIIIIII
AAAAAAAAAAAAAAAAAAAAAAAAAAAAAAAAAAAAAAA111IIIIIIIIIIIIIIIIIIIIII
AAAAAAAAAAAAAAAAAAAAAAAAAAAAAAAAAAAAAAAA111IIIIIIIIIIIIIIIIIIIII
AAAAAAAAAAAAAAAAAAAAAAAAAAAAAAAAAAAAAAAA1111IIIIIIIIIIIIIIIIIIII
AAAAAAAAAAAAAAAAAAAAAAAAAAAAAAAAAAAAAAAAA1111IIIIIIIIIIIIIIIIIII
AAAAAAAAAAAAAAAAAAAAAAAAAAAAAAAAAAAAAAAAAA1111IIIIIIIIIIIIIIIIII
AAAAAAAAAAAAAAAAAAAAAAAAAAAAAAAAAAAAAAAAAAA1111IIIIIIIIIIIIIIIII
AAAAAAAAAAAAAAAAAAAAAAAAAAAAAAAAAAAAAAAAAAAA1111IIIIIIIIIIIIIIII
AAAAAAAAAAAAAAAAAAAAAAAAAAAAAAAAAAAAAAAAAAAAA1111IIIIIIIIIIIIIII
AAAAAAAAAAAAAAAAAAAAAAAAAAAAAAAAAAAAAAAAAAAAAA1111IIIIIIIIIIIIII
AAAAAAAAAAAAAAAAAAAAAAAAAAAAAAAAAAAAAAAAAAAAAAA111IIIIIIIIIIIIII
AAAAAAAAAAAAAAAAAAAAAAAAAAAAAAAAAAAAAAAAAAAAAAA1111IIIIIIIIIIIII
AAAAAAAAAAAAAAAAAAAAAAAAAAAAAAAAAAAAAAAAAAAAAAAA111IIIIIIIIIIIII
AAAAAAAAAAAAAAAAAAAAAAAAAAAAAAAAAAAAAAAAAAAAAAAA1111IIIIIIIIIIII
AAAAAAAAAAAAAAAAAAAAAAAAAAAAAAAAAAAAAAAAAAAAAAAAA1111IIIIIIIIIII
AAAAAAAAAAAAAAAAAAAAAAAAAAAAAAAAAAAAAAAAAAAAAAAAAA1111IIIIIIIIII
AAAAAAAAAAAAAAAAAAAAAAAAAAAAAAAAAAAAAAAAAAAAAAAAAAA1111IIIIIIIII
AAAAAAAAAAAAAAAAAAAAAAAAAAAAAAAAAAAAAAAAAAAAAAAAAAAA1111IIIIIIII
AAAAAAAAAAAAAAAAAAAAAAAAAAAAAAAAAAAAAAAAAAAAAAAAAAAAA1111IIIIIII
AAAAAAAAAAAAAAAAAAAAAAAAAAAAAAAAAAAAAAAAAAAAAAAAAAAAAA1111IIIIII
AAAAAAAAAAAAAAAAAAAAAAAAAAAAAAAAAAAAAAAAAAAAAAAAAAAAAAA1111IIIII
AAAAAAAAAAAAAAAAAAAAAAAAAAAAAAAAAAAAAAAAAAAAAAAAAAAAAAAA1111IIII
AAAAAAAAAAAAAAAAAAAAAAAAAAAAAAAAAAAAAAAAAAAAAAAAAAAAAAAAA1111III
AAAAAAAAAAAAAAAAAAAAAAAAAAAAAAAAAAAAAAAAAAAAAAAAAAAAAAAAAA1111II
AAAAAAAAAAAAAAAAAAAAAAAAAAAAAAAAAAAAAAAAAAAAAAAAAAAAAAAAAAA111II
AAAAAAAAAAAAAAAAAAAAAAAAAAAAAAAAAAAAAAAAAAAAAAAAAAAAAAAAAAAA111I
AAAAAAAAAAAAAAAAAAAAAAAAAAAAAAAAAAAAAAAAAAAAAAAAAAAAAAAAAAAAA111
AAAAAAAAAAAAAAAAAAAAAAAAAAAAAAAAAAAAAAAAAAAAAAAAAAAAAAAAAAAAAA11
AAAAAAAAAAAAAAAAAAAAAAAAAAAAAAAAAAAAAAAAAAAAAAAAAAAAAAAAAAAAAAA1
AAAAAAAAAAAAAAAAAAAAAAAAAAAAAAAAAAAAAAAAAAAAAAAAAAAAAAAAAAAAAAAA
[MLOP] Prefetch Degree Mean: 3.72565
[MLOP] Prefetch Degree SD: 1.24298
[MLOP] Max Score Left Mean (%): 93.9624
[MLOP] Max Score Left SD (%): 10.6744
[MLOP] Max Score Right Mean (%): 98.1555
[MLOP] Max Score Right SD (%): 9.01144
LLC TOTAL     ACCESS:    1290235  HIT:     745115  MISS:     545120  HIT %:    57.7503  MISS %:    42.2497   MPKI: 2.72511
[...]
IIIIIIIIIIIIIIIIIIIAAAAIIIIIIIIIIIIIIIIIAAAA1IIIIIIIIIIIIIIIIIAA
IIIIIIIIIIIIIIIIIIIAAAAIIIIIIIIIIIIIIIIIAAAA11IIIIIIIIIIIIIIIIAA
IIIIIIIIIIIIIIIIIIIAAAA11IIIIIIIIIIIIIIIAAAA11IIIIIIIIIIIIIIIIAA
IIIIIIIIIIIIIIIIIIIAAAA11IIIIIIIIIIIIIIIAAAAA11IIIIIIIIIIIIIIIAA
IIIIIIIIIIIIIIIIIIIAAAAA11IIIIIIIIIIIIIIAAAAA11IIIIIIIIIIIIIIIAA
IIIIIIIIIIIIIIIIIIIAAAAA11IIIIIIIIIIIIIIAAAAA111IIIIIIIIIIIIIIAA
IIIIIIIIIIIIIIIIIIIAAAAA111IIIIIIIIIIIIIAAAAA111IIIIIIIIIIIIIIAA
IIIIIIIIIIIIIIIIIIIAAAAA111IIIIIIIIIIIIIAAAAAA111IIIIIIIIIIIIIAA
IIIIIIIIIIIIIIIIIIIAAAAAA111IIIIIIIIIIIIAAAAAA111IIIIIIIIIIIIIAA
IIIIIIIIIIIIIIIIIIIAAAAAA111IIIIIIIIIIIIAAAAAAA111IIIIIIIIIIIIAA
IIIIIIIIIIIIIIIIIIIAAAAAAA111IIIIIIIIIIIAAAAAAA111IIIIIIIIIIIIAA
IIIIIIIIIIIIIIIIIIIAAAAAAA111IIIIIIIIIIIAAAAAAAA111IIIIIIIIIIIAA
IIIIIIIIIIIIIIIIIIIAAAAAAAA111IIIIIIIIIIAAAAAAAA111IIIIIIIIIIIAA
IIIIIIIIIIIIIIIIIIIAAAAAAAA111IIIIIIIIIIAAAAAAAAA111IIIIIIIIIIAA
IIIIIIIIIIIIIIIIIIIAAAAAAAAA111IIIIIIIIIAAAAAAAAA111IIIIIIIIIIAA
IIIIIIIIIIIIIIIIIIIAAAAAAAAA111IIIIIIIIIAAAAAAAAAA111IIIIIIIIIAA
IIIIIIIIIIIIIIIIIIIAAAAAAAAAA11IIIIIIIIIAAAAAAAAAA111IIIIIIIIIAA
IIIIIIIIIIIIIIIIIIIAAAAAAAAAA11IIIIIIIIIAAAAAAAAAA1111IIIIIIIIAA
IIIIIIIIIIIIIIIIIIIAAAAAAAAAA111IIIIIIIIAAAAAAAAAA1111IIIIIIIIAA
IIIIIIIIIIIIIIIIIIIAAAAAAAAAA111IIIIIIIIAAAAAAAAAA11111IIIIIIIAA
IIIIIIIIIIIIIIIIIIIAAAAAAAAAA11111IIIIIIAAAAAAAAAA11111IIIIIIIAA
IIIIIIIIIIIIIIIIIIIAAAAAAAAAA11111IIIIIIAAAAAAAAAAA11111IIIIIIAA
IIIIIIIIIIIIIIIIIIIAAAAAAAAAAA11111IIIIIAAAAAAAAAAA11111IIIIIIAA
IIIIIIIIIIIIIIIIIIIAAAAAAAAAAA11111IIIIIAAAAAAAAAAAA1111IIIIIIAA
IIIIIIIIIIIIIIIIIIIAAAAAAAAAAA111111IIIIAAAAAAAAAAAA1111IIIIIIAA
IIIIIIIIIIIIIIIIIIIAAAAAAAAAAA111111IIIIAAAAAAAAAAAA111111IIIIAA
IIIIIIIIIIIIIIIIIIIAAAAAAAAAAAA111111IIIAAAAAAAAAAAA111111IIIIAA
IIIIIIIIIIIIIIIIIIIAAAAAAAAAAAA111111IIIAAAAAAAAAAAAA111111IIIAA
IIIIIIIIIIIIIIIIIIIAAAAAAAAAAAAA11111IIIAAAAAAAAAAAAA111111IIIAA
IIIIIIIIIIIIIIIIIIIAAAAAAAAAAAAA11111IIIAAAAAAAAAAAAAA11111IIIAA
IIIIIIIIIIIIIIIIIIIAAAAAAAAAAAAAA1111IIIAAAAAAAAAAAAAA11111IIIAA
IIIIIIIIIIIIIIIIIIIAAAAAAAAAAAAAA1111IIIAAAAAAAAAAAAAAA1111IIIAA
IIIIIIIIIIIIIIIIIIIAAAAAAAAAAAAAAA111IIIAAAAAAAAAAAAAAA1111IIIAA
IIIIIIIIIIIIIIIIIIIAAAAAAAAAAAAAAA111IIIAAAAAAAAAAAAAAAA111IIIAA
IIIIIIIIIIIIIIIIIIIAAAAAAAAAAAAAAAA111IIAAAAAAAAAAAAAAAA111IIIAA
IIIIIIIIIIIIIIIIIIIAAAAAAAAAAAAAAAA111IIAAAAAAAAAAAAAAAA1111IIAA
IIIIIIIIIIIIIIIIIIIAAAAAAAAAAAAAAAA111IIAAAAAAAAAAAAAAAA11111IAA
IIIIIIIIIIIIIIIIIIIAAAAAAAAAAAAAAAA1111IAAAAAAAAAAAAAAAA11111IAA
IIIIIIIIIIIIIIIIIIIAAAAAAAAAAAAAAAA11111AAAAAAAAAAAAAAAA11111IAA
IIIIIIIIIIIIIIIIIIIAAAAAAAAAAAAAAAA11111AAAAAAAAAAAAAAAAA11111AA
IIIIIIIIIIIIIIIIIIIAAAAAAAAAAAAAAAAA1111AAAAAAAAAAAAAAAAA11111AA
IIIIIIIIIIIIIIIIIIIAAAAAAAAAAAAAAAAA1111AAAAAAAAAAAAAAAAAA1111AA
IIIIIIIIIIIIIIIIIIIAAAAAAAAAAAAAAAAAA111AAAAAAAAAAAAAAAAAA1111AA
IIIIIIIIIIIIIIIIIIIAAAAAAAAAAAAAAAAAA111AAAAAAAAAAAAAAAAAAA111AA
IIIIIIIIIIIIIIIIIIIAAAAAAAAAAAAAAAAAAA11AAAAAAAAAAAAAAAAAAA111AA
IIIIIIIIIIIIIIIIIIIAAAAAAAAAAAAAAAAAAA11AAAAAAAAAAAAAAAAAAAA11AA
IIIIIIIIIIIIIIIIIIIAAAAAAAAAAAAAAAAAAAA1AAAAAAAAAAAAAAAAAAAA11AA
IIIIIIIIIIIIIIIIIIIAAAAAAAAAAAAAAAAAAAA1AAAAAAAAAAAAAAAAAAAAA1AA
IIIIIIIIIIIIIIIIIIIAAAAAAAAAAAAAAAAAAAAAAAAAAAAAAAAAAAAAAAAAA1AA
IIIIIIIIIIIIIIIIIIIAAAAAAAAAAAAAAAAAAAAAAAAAAAAAAAAAAAAAAAAAAAAA
A111IIIIIIIIIIIIIIIIIIIIIIIIIIIIIIIIIIIIIIIIIIIIIIIIIIIIIIIIIIII
AA111IIIIIIIIIIIIIIIIIIIIIIIIIIIIIIIIIIIIIIIIIIIIIIIIIIIIIIIIIII
AA1111IIIIIIIIIIIIIIIIIIIIIIIIIIIIIIIIIIIIIIIIIIIIIIIIIIIIIIIIII
AAA1111IIIIIIIIIIIIIIIIIIIIIIIIIIIIIIIIIIIIIIIIIIIIIIIIIIIIIIIII
AAAA1111IIIIIIIIIIIIIIIIIIIIIIIIIIIIIIIIIIIIIIIIIIIIIIIIIIIIIIII
AAAAA1111IIIIIIIIIIIIIIIIIIIIIIIIIIIIIIIIIIIIIIIIIIIIIIIIIIIIIII
AAAAAA1111IIIIIIIIIIIIIIIIIIIIIIIIIIIIIIIIIIIIIIIIIIIIIIIIIIIIII
AAAAAAA1111IIIIIIIIIIIIIIIIIIIIIIIIIIIIIIIIIIIIIIIIIIIIIIIIIIIII
AAAAAAAA1111IIIIIIIIIIIIIIIIIIIIIIIIIIIIIIIIIIIIIIIIIIIIIIIIIIII
AAAAAAAAA1111IIIIIIIIIIIIIIIIIIIIIIIIIIIIIIIIIIIIIIIIIIIIIIIIIII
AAAAAAAAAA1111IIIIIIIIIIIIIIIIIIIIIIIIIIIIIIIIIIIIIIIIIIIIIIIIII
AAAAAAAAAAA1111IIIIIIIIIIIIIIIIIIIIIIIIIIIIIIIIIIIIIIIIIIIIIIIII
AAAAAAAAAAAA1111IIIIIIIIIIIIIIIIIIIIIIIIIIIIIIIIIIIIIIIIIIIIIIII
AAAAAAAAAAAAA1111IIIIIIIIIIIIIIIIIIIIIIIIIIIIIIIIIIIIIIIIIIIIIII
AAAAAAAAAAAAAA111IIIIIIIIIIIIIIIIIIIIIIIIIIIIIIIIIIIIIIIIIIIIIII
AAAAAAAAAAAAAA1111IIIIIIIIIIIIIIIIIIIIIIIIIIIIIIIIIIIIIIIIIIIIII
AAAAAAAAAAAAAAA111IIIIIIIIIIIIIIIIIIIIIIIIIIIIIIIIIIIIIIIIIIIIII
AAAAAAAAAAAAAAAA111IIIIIIIIIIIIIIIIIIIIIIIIIIIIIIIIIIIIIIIIIIIII
AAAAAAAAAAAAAAAAA111IIIIIIIIIIIIIIIIIIIIIIIIIIIIIIIIIIIIIIIIIIII
AAAAAAAAAAAAAAAAAA111IIIIIIIIIIIIIIIIIIIIIIIIIIIIIIIIIIIIIIIIIII
AAAAAAAAAAAAAAAAAAA111IIIIIIIIIIIIIIIIIIIIIIIIIIIIIIIIIIIIIIIIII
AAAAAAAAAAAAAAAAAAAA111IIIIIIIIIIIIIIIIIIIIIIIIIIIIIIIIIIIIIIIII
AAAAAAAAAAAAAAAAAAAAA111IIIIIIIIIIIIIIIIIIIIIIIIIIIIIIIIIIIIIIII
AAAAAAAAAAAAAAAAAAAAAA111IIIIIIIIIIIIIIIIIIIIIIIIIIIIIIIIIIIIIII
AAAAAAAAAAAAAAAAAAAAAAA111IIIIIIIIIIIIIIIIIIIIIIIIIIIIIIIIIIIIII
AAAAAAAAAAAAAAAAAAAAAAAA111IIIIIIIIIIIIIIIIIIIIIIIIIIIIIIIIIIIII
AAAAAAAAAAAAAAAAAAAAAAAAA111IIIIIIIIIIIIIIIIIIIIIIIIIIIIIIIIIIII
AAAAAAAAAAAAAAAAAAAAAAAAAA111IIIIIIIIIIIIIIIIIIIIIIIIIIIIIIIIIII
AAAAAAAAAAAAAAAAAAAAAAAAAAA111IIIIIIIIIIIIIIIIIIIIIIIIIIIIIIIIII
AAAAAAAAAAAAAAAAAAAAAAAAAAA11111IIIIIIIIIIIIIIIIIIIIIIIIIIIIIIII
AAAAAAAAAAAAAAAAAAAAAAAAAAAA1111IIIIIIIIIIIIIIIIIIIIIIIIIIIIIIII
AAAAAAAAAAAAAAAAAAAAAAAAAAAA11111IIIIIIIIIIIIIIIIIIIIIIIIIIIIIII
AAAAAAAAAAAAAAAAAAAAAAAAAAAAA1111IIIIIIIIIIIIIIIIIIIIIIIIIIIIIII
AAAAAAAAAAAAAAAAAAAAAAAAAAAAA11111IIIIIIIIIIIIIIIIIIIIIIIIIIIIII
AAAAAAAAAAAAAAAAAAAAAAAAAAAAAA1111IIIIIIIIIIIIIIIIIIIIIIIIIIIIII
AAAAAAAAAAAAAAAAAAAAAAAAAAAAAA11111IIIIIIIIIIIIIIIIIIIIIIIIIIIII
AAAAAAAAAAAAAAAAAAAAAAAAAAAAAAA1111IIIIIIIIIIIIIIIIIIIIIIIIIIIII
AAAAAAAAAAAAAAAAAAAAAAAAAAAAAAA11111IIIIIIIIIIIIIIIIIIIIIIIIIIII
AAAAAAAAAAAAAAAAAAAAAAAAAAAAAAAA1111IIIIIIIIIIIIIIIIIIIIIIIIIIII
AAAAAAAAAAAAAAAAAAAAAAAAAAAAAAAA11111IIIIIIIIIIIIIIIIIIIIIIIIIII
AAAAAAAAAAAAAAAAAAAAAAAAAAAAAAAAA1111IIIIIIIIIIIIIIIIIIIIIIIIIII
AAAAAAAAAAAAAAAAAAAAAAAAAAAAAAAAA11111IIIIIIIIIIIIIIIIIIIIIIIIII
AAAAAAAAAAAAAAAAAAAAAAAAAAAAAAAAAA1111IIIIIIIIIIIIIIIIIIIIIIIIII
AAAAAAAAAAAAAAAAAAAAAAAAAAAAAAAAAAA111IIIIIIIIIIIIIIIIIIIIIIIIII
AAAAAAAAAAAAAAAAAAAAAAAAAAAAAAAAAAAA111IIIIIIIIIIIIIIIIIIIIIIIII
AAAAAAAAAAAAAAAAAAAAAAAAAAAAAAAAAAAAA111IIIIIIIIIIIIIIIIIIIIIIII
AAAAAAAAAAAAAAAAAAAAAAAAAAAAAAAAAAAAAA111IIIIIIIIIIIIIIIIIIIIIII
AAAAAAAAAAAAAAAAAAAAAAAAAAAAAAAAAAAAAAA111IIIIIIIIIIIIIIIIIIIIII
AAAAAAAAAAAAAAAAAAAAAAAAAAAAAAAAAAAAAAAA111IIIIIIIIIIIIIIIIIIIII
AAAAAAAAAAAAAAAAAAAAAAAAAAAAAAAAAAAAAAAAA111IIIIIIIIIIIIIIIIIIII
AAAAAAAAAAAAAAAAAAAAAAAAAAAAAAAAAAAAAAAAAA111IIIIIIIIIIIIIIIIIII
AAAAAAAAAAAAAAAAAAAAAAAAAAAAAAAAAAAAAAAAAAA111IIIIIIIIIIIIIIIIII
AAAAAAAAAAAAAAAAAAAAAAAAAAAAAAAAAAAAAAAAAAAA111IIIIIIIIIIIIIIIII
AAAAAAAAAAAAAAAAAAAAAAAAAAAAAAAAAAAAAAAAAAAAA111IIIIIIIIIIIIIIII
AAAAAAAAAAAAAAAAAAAAAAAAAAAAAAAAAAAAAAAAAAAAAA111IIIIIIIIIIIIIII
AAAAAAAAAAAAAAAAAAAAAAAAAAAAAAAAAAAAAAAAAAAAAA1111IIIIIIIIIIIIII
AAAAAAAAAAAAAAAAAAAAAAAAAAAAAAAAAAAAAAAAAAAAAAA1111IIIIIIIIIIIII
AAAAAAAAAAAAAAAAAAAAAAAAAAAAAAAAAAAAAAAAAAAAAAAA1111IIIIIIIIIIII
AAAAAAAAAAAAAAAAAAAAAAAAAAAAAAAAAAAAAAAAAAAAAAAAA1111IIIIIIIIIII
AAAAAAAAAAAAAAAAAAAAAAAAAAAAAAAAAAAAAAAAAAAAAAAAAA1111IIIIIIIIII
AAAAAAAAAAAAAAAAAAAAAAAAAAAAAAAAAAAAAAAAAAAAAAAAAAA1111IIIIIIIII
AAAAAAAAAAAAAAAAAAAAAAAAAAAAAAAAAAAAAAAAAAAAAAAAAAAA1111IIIIIIII
AAAAAAAAAAAAAAAAAAAAAAAAAAAAAAAAAAAAAAAAAAAAAAAAAAAAA1111IIIIIII
AAAAAAAAAAAAAAAAAAAAAAAAAAAAAAAAAAAAAAAAAAAAAAAAAAAAAA1111IIIIII
AAAAAAAAAAAAAAAAAAAAAAAAAAAAAAAAAAAAAAAAAAAAAAAAAAAAAAA1111IIIII
AAAAAAAAAAAAAAAAAAAAAAAAAAAAAAAAAAAAAAAAAAAAAAAAAAAAAAAA1111IIII
AAAAAAAAAAAAAAAAAAAAAAAAAAAAAAAAAAAAAAAAAAAAAAAAAAAAAAAAA1111III
AAAAAAAAAAAAAAAAAAAAAAAAAAAAAAAAAAAAAAAAAAAAAAAAAAAAAAAAAA1111II
AAAAAAAAAAAAAAAAAAAAAAAAAAAAAAAAAAAAAAAAAAAAAAAAAAAAAAAAAAA111II
AAAAAAAAAAAAAAAAAAAAAAAAAAAAAAAAAAAAAAAAAAAAAAAAAAAAAAAAAAAA111I
AAAAAAAAAAAAAAAAAAAAAAAAAAAAAAAAAAAAAAAAAAAAAAAAAAAAAAAAAAAAA111
AAAAAAAAAAAAAAAAAAAAAAAAAAAAAAAAAAAAAAAAAAAAAAAAAAAAAAAAAAAAAA11
AAAAAAAAAAAAAAAAAAAAAAAAAAAAAAAAAAAAAAAAAAAAAAAAAAAAAAAAAAAAAAA1
AAAAAAAAAAAAAAAAAAAAAAAAAAAAAAAAAAAAAAAAAAAAAAAAAAAAAAAAAAAAAAAA
[MLOP] Prefetch Degree Mean: 3.74751
[MLOP] Prefetch Degree SD: 1.26187
[MLOP] Max Score Left Mean (%): 93.9332
[MLOP] Max Score Left SD (%): 10.499
[MLOP] Max Score Right Mean (%): 98.1583
[MLOP] Max Score Right SD (%): 8.98709
=== CPU 3 L1D Prefetcher Statistics ===
[MLOP] History of tracked zone:
IIIIIIIIIIIIIIIIIIIIIIIIIIIIIIIIIIIIIIIIIIIIIIIIIIIIIIIIIIIIIIII
IIIIIIIIIIIIIIIIIIIIIIIIIIIIIIIIIIIIIIIIIIIIIIIIIIIIIIIIIIIIIIAI
IIIIIIIIIIIIIIIIIIIIIIIIIIIIIIIIIIIIIIIIAIIIIIIIIIIIIIIIIIIIIIAI
IIIIIIIIIIIIIIIIIIIAIIIIIIIIIIIIIIIIIIIIAIIIIIIIIIIIIIIIIIIIIIAI
IIIIIIIIIIIIIIIIIIIAIIIIIIIIIIIIIIIIIIIIAAIIIIIIIIIIIIIIIIIIIIAI
IIIIIIIIIIIIIIIIIIIAIIIIIIIIIIIIIIIIIIIIAAIIIIIIIIIIIIIIIIIIIIAA
IIIIIIIIIIIIIIIIIIIAAIIIIIIIIIIIIIIIIIIIAAIIIIIIIIIIIIIIIIIIIIAA
IIIIIIIIIIIIIIIIIIIAAIIIIIIIIIIIIIIIIIIIAA2IIIIIIIIIIIIIIIIIIIAA
IIIIIIIIIIIIIIIIIIIAA2IIIIIIIIIIIIIIIIIIAA2IIIIIIIIIIIIIIIIIIIAA
IIIIIIIIIIIIIIIIIIIAA2IIIIIIIIIIIIIIIIIIAAA2IIIIIIIIIIIIIIIIIIAA
IIIIIIIIIIIIIIIIIIIAAA2IIIIIIIIIIIIIIIIIAAA2IIIIIIIIIIIIIIIIIIAA
IIIIIIIIIIIIIIIIIIIAAA2IIIIIIIIIIIIIIIIIAAAAIIIIIIIIIIIIIIIIIIAA
IIIIIIIIIIIIIIIIIIIAAAAIIIIIIIIIIIIIIIIIAAAAIIIIIIIIIIIIIIIIIIAA
IIIIIIIIIIIIIIIIIIIAAAAIIIIIIIIIIIIIIIIIAAAA11IIIIIIIIIIIIIIIIAA
IIIIIIIIIIIIIIIIIIIAAAA11IIIIIIIIIIIIIIIAAAA11IIIIIIIIIIIIIIIIAA
IIIIIIIIIIIIIIIIIIIAAAA11IIIIIIIIIIIIIIIAAAAA11IIIIIIIIIIIIIIIAA
IIIIIIIIIIIIIIIIIIIAAAAA11IIIIIIIIIIIIIIAAAAA11IIIIIIIIIIIIIIIAA
IIIIIIIIIIIIIIIIIIIAAAAA11IIIIIIIIIIIIIIAAAAA111IIIIIIIIIIIIIIAA
IIIIIIIIIIIIIIIIIIIAAAAA111IIIIIIIIIIIIIAAAAA111IIIIIIIIIIIIIIAA
IIIIIIIIIIIIIIIIIIIAAAAA111IIIIIIIIIIIIIAAAAAA111IIIIIIIIIIIIIAA
IIIIIIIIIIIIIIIIIIIAAAAAA111IIIIIIIIIIIIAAAAAA111IIIIIIIIIIIIIAA
IIIIIIIIIIIIIIIIIIIAAAAAA111IIIIIIIIIIIIAAAAAAA111IIIIIIIIIIIIAA
IIIIIIIIIIIIIIIIIIIAAAAAAA111IIIIIIIIIIIAAAAAAA111IIIIIIIIIIIIAA
IIIIIIIIIIIIIIIIIIIAAAAAAA111IIIIIIIIIIIAAAAAAAA111IIIIIIIIIIIAA
IIIIIIIIIIIIIIIIIIIAAAAAAAA111IIIIIIIIIIAAAAAAAA111IIIIIIIIIIIAA
IIIIIIIIIIIIIIIIIIIAAAAAAAA111IIIIIIIIIIAAAAAAAAA111IIIIIIIIIIAA
IIIIIIIIIIIIIIIIIIIAAAAAAAAA111IIIIIIIIIAAAAAAAAA111IIIIIIIIIIAA
IIIIIIIIIIIIIIIIIIIAAAAAAAAA111IIIIIIIIIAAAAAAAAAA111IIIIIIIIIAA
IIIIIIIIIIIIIIIIIIIAAAAAAAAAA11IIIIIIIIIAAAAAAAAAA111IIIIIIIIIAA
IIIIIIIIIIIIIIIIIIIAAAAAAAAAA1111IIIIIIIAAAAAAAAAA111IIIIIIIIIAA
IIIIIIIIIIIIIIIIIIIAAAAAAAAAA1111IIIIIIIAAAAAAAAAA11111IIIIIIIAA
IIIIIIIIIIIIIIIIIIIAAAAAAAAAA11111IIIIIIAAAAAAAAAA11111IIIIIIIAA
IIIIIIIIIIIIIIIIIIIAAAAAAAAAA11111IIIIIIAAAAAAAAAAA11111IIIIIIAA
IIIIIIIIIIIIIIIIIIIAAAAAAAAAAA11111IIIIIAAAAAAAAAAA11111IIIIIIAA
IIIIIIIIIIIIIIIIIIIAAAAAAAAAAA11111IIIIIAAAAAAAAAAAA1111IIIIIIAA
IIIIIIIIIIIIIIIIIIIAAAAAAAAAAA111111IIIIAAAAAAAAAAAA1111IIIIIIAA
IIIIIIIIIIIIIIIIIIIAAAAAAAAAAA111111IIIIAAAAAAAAAAAA111111IIIIAA
IIIIIIIIIIIIIIIIIIIAAAAAAAAAAAA111111IIIAAAAAAAAAAAA111111IIIIAA
IIIIIIIIIIIIIIIIIIIAAAAAAAAAAAA111111IIIAAAAAAAAAAAAA111111IIIAA
IIIIIIIIIIIIIIIIIIIAAAAAAAAAAAAA11111IIIAAAAAAAAAAAAA111111IIIAA
IIIIIIIIIIIIIIIIIIIAAAAAAAAAAAAA11111IIIAAAAAAAAAAAAAA11111IIIAA
IIIIIIIIIIIIIIIIIIIAAAAAAAAAAAAAA1111IIIAAAAAAAAAAAAAA11111IIIAA
IIIIIIIIIIIIIIIIIIIAAAAAAAAAAAAAA1111IIIAAAAAAAAAAAAAAA1111IIIAA
IIIIIIIIIIIIIIIIIIIAAAAAAAAAAAAAAA111IIIAAAAAAAAAAAAAAA1111IIIAA
IIIIIIIIIIIIIIIIIIIAAAAAAAAAAAAAAA111IIIAAAAAAAAAAAAAAAA111IIIAA
IIIIIIIIIIIIIIIIIIIAAAAAAAAAAAAAAAA111IIAAAAAAAAAAAAAAAA111IIIAA
IIIIIIIIIIIIIIIIIIIAAAAAAAAAAAAAAAA111IIAAAAAAAAAAAAAAAA11111IAA
IIIIIIIIIIIIIIIIIIIAAAAAAAAAAAAAAAA11111AAAAAAAAAAAAAAAA11111IAA
IIIIIIIIIIIIIIIIIIIAAAAAAAAAAAAAAAA11111AAAAAAAAAAAAAAAAA11111AA
IIIIIIIIIIIIIIIIIIIAAAAAAAAAAAAAAAAA1111AAAAAAAAAAAAAAAAA11111AA
IIIIIIIIIIIIIIIIIIIAAAAAAAAAAAAAAAAA1111AAAAAAAAAAAAAAAAAA1111AA
IIIIIIIIIIIIIIIIIIIAAAAAAAAAAAAAAAAAA111AAAAAAAAAAAAAAAAAA1111AA
IIIIIIIIIIIIIIIIIIIAAAAAAAAAAAAAAAAAA111AAAAAAAAAAAAAAAAAAA111AA
IIIIIIIIIIIIIIIIIIIAAAAAAAAAAAAAAAAAAA11AAAAAAAAAAAAAAAAAAA111AA
IIIIIIIIIIIIIIIIIIIAAAAAAAAAAAAAAAAAAA11AAAAAAAAAAAAAAAAAAAA11AA
IIIIIIIIIIIIIIIIIIIAAAAAAAAAAAAAAAAAAAA1AAAAAAAAAAAAAAAAAAAA11AA
IIIIIIIIIIIIIIIIIIIAAAAAAAAAAAAAAAAAAAA1AAAAAAAAAAAAAAAAAAAAA1AA
IIIIIIIIIIIIIIIIIIIAAAAAAAAAAAAAAAAAAAAAAAAAAAAAAAAAAAAAAAAAA1AA
IIIIIIIIIIIIIIIIIIIAAAAAAAAAAAAAAAAAAAAAAAAAAAAAAAAAAAAAAAAAAAAA
A111IIIIIIIIIIIIIIIIIIIIIIIIIIIIIIIIIIIIIIIIIIIIIIIIIIIIIIIIIIII
AA111IIIIIIIIIIIIIIIIIIIIIIIIIIIIIIIIIIIIIIIIIIIIIIIIIIIIIIIIIII
AA1111IIIIIIIIIIIIIIIIIIIIIIIIIIIIIIIIIIIIIIIIIIIIIIIIIIIIIIIIII
AAA1111IIIIIIIIIIIIIIIIIIIIIIIIIIIIIIIIIIIIIIIIIIIIIIIIIIIIIIIII
AAAA1111IIIIIIIIIIIIIIIIIIIIIIIIIIIIIIIIIIIIIIIIIIIIIIIIIIIIIIII
AAAAA111IIIIIIIIIIIIIIIIIIIIIIIIIIIIIIIIIIIIIIIIIIIIIIIIIIIIIIII
AAAAA1111IIIIIIIIIIIIIIIIIIIIIIIIIIIIIIIIIIIIIIIIIIIIIIIIIIIIIII
AAAAAA1111IIIIIIIIIIIIIIIIIIIIIIIIIIIIIIIIIIIIIIIIIIIIIIIIIIIIII
AAAAAAA1111IIIIIIIIIIIIIIIIIIIIIIIIIIIIIIIIIIIIIIIIIIIIIIIIIIIII
AAAAAAAA1111IIIIIIIIIIIIIIIIIIIIIIIIIIIIIIIIIIIIIIIIIIIIIIIIIIII
AAAAAAAAA1111IIIIIIIIIIIIIIIIIIIIIIIIIIIIIIIIIIIIIIIIIIIIIIIIIII
AAAAAAAAAA1111IIIIIIIIIIIIIIIIIIIIIIIIIIIIIIIIIIIIIIIIIIIIIIIIII
AAAAAAAAAAA1111IIIIIIIIIIIIIIIIIIIIIIIIIIIIIIIIIIIIIIIIIIIIIIIII
AAAAAAAAAAAA1111IIIIIIIIIIIIIIIIIIIIIIIIIIIIIIIIIIIIIIIIIIIIIIII
AAAAAAAAAAAAA1111IIIIIIIIIIIIIIIIIIIIIIIIIIIIIIIIIIIIIIIIIIIIIII
AAAAAAAAAAAAAA111IIIIIIIIIIIIIIIIIIIIIIIIIIIIIIIIIIIIIIIIIIIIIII
AAAAAAAAAAAAAA1111IIIIIIIIIIIIIIIIIIIIIIIIIIIIIIIIIIIIIIIIIIIIII
AAAAAAAAAAAAAAA111IIIIIIIIIIIIIIIIIIIIIIIIIIIIIIIIIIIIIIIIIIIIII
AAAAAAAAAAAAAAAA11IIIIIIIIIIIIIIIIIIIIIIIIIIIIIIIIIIIIIIIIIIIIII
AAAAAAAAAAAAAAAA111IIIIIIIIIIIIIIIIIIIIIIIIIIIIIIIIIIIIIIIIIIIII
AAAAAAAAAAAAAAAAA111IIIIIIIIIIIIIIIIIIIIIIIIIIIIIIIIIIIIIIIIIIII
AAAAAAAAAAAAAAAAAA111IIIIIIIIIIIIIIIIIIIIIIIIIIIIIIIIIIIIIIIIIII
AAAAAAAAAAAAAAAAAAA111IIIIIIIIIIIIIIIIIIIIIIIIIIIIIIIIIIIIIIIIII
AAAAAAAAAAAAAAAAAAAA111IIIIIIIIIIIIIIIIIIIIIIIIIIIIIIIIIIIIIIIII
AAAAAAAAAAAAAAAAAAAAA111IIIIIIIIIIIIIIIIIIIIIIIIIIIIIIIIIIIIIIII
AAAAAAAAAAAAAAAAAAAAAA111IIIIIIIIIIIIIIIIIIIIIIIIIIIIIIIIIIIIIII
AAAAAAAAAAAAAAAAAAAAAAA111IIIIIIIIIIIIIIIIIIIIIIIIIIIIIIIIIIIIII
AAAAAAAAAAAAAAAAAAAAAAAA111IIIIIIIIIIIIIIIIIIIIIIIIIIIIIIIIIIIII
AAAAAAAAAAAAAAAAAAAAAAAAA111IIIIIIIIIIIIIIIIIIIIIIIIIIIIIIIIIIII
AAAAAAAAAAAAAAAAAAAAAAAAAA111IIIIIIIIIIIIIIIIIIIIIIIIIIIIIIIIIII
AAAAAAAAAAAAAAAAAAAAAAAAAAA111IIIIIIIIIIIIIIIIIIIIIIIIIIIIIIIIII
AAAAAAAAAAAAAAAAAAAAAAAAAAA11111IIIIIIIIIIIIIIIIIIIIIIIIIIIIIIII
AAAAAAAAAAAAAAAAAAAAAAAAAAAA1111IIIIIIIIIIIIIIIIIIIIIIIIIIIIIIII
AAAAAAAAAAAAAAAAAAAAAAAAAAAA11111IIIIIIIIIIIIIIIIIIIIIIIIIIIIIII
AAAAAAAAAAAAAAAAAAAAAAAAAAAAA1111IIIIIIIIIIIIIIIIIIIIIIIIIIIIIII
AAAAAAAAAAAAAAAAAAAAAAAAAAAAA11111IIIIIIIIIIIIIIIIIIIIIIIIIIIIII
AAAAAAAAAAAAAAAAAAAAAAAAAAAAAA1111IIIIIIIIIIIIIIIIIIIIIIIIIIIIII
AAAAAAAAAAAAAAAAAAAAAAAAAAAAAA11111IIIIIIIIIIIIIIIIIIIIIIIIIIIII
AAAAAAAAAAAAAAAAAAAAAAAAAAAAAAA1111IIIIIIIIIIIIIIIIIIIIIIIIIIIII
AAAAAAAAAAAAAAAAAAAAAAAAAAAAAAA11111IIIIIIIIIIIIIIIIIIIIIIIIIIII
AAAAAAAAAAAAAAAAAAAAAAAAAAAAAAAA1111IIIIIIIIIIIIIIIIIIIIIIIIIIII
AAAAAAAAAAAAAAAAAAAAAAAAAAAAAAAA11111IIIIIIIIIIIIIIIIIIIIIIIIIII
AAAAAAAAAAAAAAAAAAAAAAAAAAAAAAAAA11111IIIIIIIIIIIIIIIIIIIIIIIIII
AAAAAAAAAAAAAAAAAAAAAAAAAAAAAAAAAA1111IIIIIIIIIIIIIIIIIIIIIIIIII
AAAAAAAAAAAAAAAAAAAAAAAAAAAAAAAAAAA111IIIIIIIIIIIIIIIIIIIIIIIIII
AAAAAAAAAAAAAAAAAAAAAAAAAAAAAAAAAAAA111IIIIIIIIIIIIIIIIIIIIIIIII
AAAAAAAAAAAAAAAAAAAAAAAAAAAAAAAAAAAAA111IIIIIIIIIIIIIIIIIIIIIIII
AAAAAAAAAAAAAAAAAAAAAAAAAAAAAAAAAAAAAA111IIIIIIIIIIIIIIIIIIIIIII
AAAAAAAAAAAAAAAAAAAAAAAAAAAAAAAAAAAAAAA111IIIIIIIIIIIIIIIIIIIIII
AAAAAAAAAAAAAAAAAAAAAAAAAAAAAAAAAAAAAAAA111IIIIIIIIIIIIIIIIIIIII
AAAAAAAAAAAAAAAAAAAAAAAAAAAAAAAAAAAAAAAA1111IIIIIIIIIIIIIIIIIIII
AAAAAAAAAAAAAAAAAAAAAAAAAAAAAAAAAAAAAAAAA1111IIIIIIIIIIIIIIIIIII
AAAAAAAAAAAAAAAAAAAAAAAAAAAAAAAAAAAAAAAAAA1111IIIIIIIIIIIIIIIIII
AAAAAAAAAAAAAAAAAAAAAAAAAAAAAAAAAAAAAAAAAAA1111IIIIIIIIIIIIIIIII
AAAAAAAAAAAAAAAAAAAAAAAAAAAAAAAAAAAAAAAAAAAA1111IIIIIIIIIIIIIIII
AAAAAAAAAAAAAAAAAAAAAAAAAAAAAAAAAAAAAAAAAAAAA1111IIIIIIIIIIIIIII
AAAAAAAAAAAAAAAAAAAAAAAAAAAAAAAAAAAAAAAAAAAAAA1111IIIIIIIIIIIIII
AAAAAAAAAAAAAAAAAAAAAAAAAAAAAAAAAAAAAAAAAAAAAAA111IIIIIIIIIIIIII
AAAAAAAAAAAAAAAAAAAAAAAAAAAAAAAAAAAAAAAAAAAAAAA1111IIIIIIIIIIIII
AAAAAAAAAAAAAAAAAAAAAAAAAAAAAAAAAAAAAAAAAAAAAAAA111IIIIIIIIIIIII
AAAAAAAAAAAAAAAAAAAAAAAAAAAAAAAAAAAAAAAAAAAAAAAA1111IIIIIIIIIIII
AAAAAAAAAAAAAAAAAAAAAAAAAAAAAAAAAAAAAAAAAAAAAAAAA1111IIIIIIIIIII
AAAAAAAAAAAAAAAAAAAAAAAAAAAAAAAAAAAAAAAAAAAAAAAAAA1111IIIIIIIIII
AAAAAAAAAAAAAAAAAAAAAAAAAAAAAAAAAAAAAAAAAAAAAAAAAAA1111IIIIIIIII
AAAAAAAAAAAAAAAAAAAAAAAAAAAAAAAAAAAAAAAAAAAAAAAAAAAA1111IIIIIIII
AAAAAAAAAAAAAAAAAAAAAAAAAAAAAAAAAAAAAAAAAAAAAAAAAAAAA1111IIIIIII
AAAAAAAAAAAAAAAAAAAAAAAAAAAAAAAAAAAAAAAAAAAAAAAAAAAAAA1111IIIIII
AAAAAAAAAAAAAAAAAAAAAAAAAAAAAAAAAAAAAAAAAAAAAAAAAAAAAAA1111IIIII
AAAAAAAAAAAAAAAAAAAAAAAAAAAAAAAAAAAAAAAAAAAAAAAAAAAAAAAA1111IIII
AAAAAAAAAAAAAAAAAAAAAAAAAAAAAAAAAAAAAAAAAAAAAAAAAAAAAAAAA1111III
AAAAAAAAAAAAAAAAAAAAAAAAAAAAAAAAAAAAAAAAAAAAAAAAAAAAAAAAAA1111II
AAAAAAAAAAAAAAAAAAAAAAAAAAAAAAAAAAAAAAAAAAAAAAAAAAAAAAAAAAA111II
AAAAAAAAAAAAAAAAAAAAAAAAAAAAAAAAAAAAAAAAAAAAAAAAAAAAAAAAAAAA111I
AAAAAAAAAAAAAAAAAAAAAAAAAAAAAAAAAAAAAAAAAAAAAAAAAAAAAAAAAAAAA111
AAAAAAAAAAAAAAAAAAAAAAAAAAAAAAAAAAAAAAAAAAAAAAAAAAAAAAAAAAAAAA11
AAAAAAAAAAAAAAAAAAAAAAAAAAAAAAAAAAAAAAAAAAAAAAAAAAAAAAAAAAAAAAA1
AAAAAAAAAAAAAAAAAAAAAAAAAAAAAAAAAAAAAAAAAAAAAAAAAAAAAAAAAAAAAAAA
[MLOP] Prefetch Degree Mean: 3.72565
[MLOP] Prefetch Degree SD: 1.24298
[MLOP] Max Score Left Mean (%): 93.9624
[MLOP] Max Score Left SD (%): 10.6744
[MLOP] Max Score Right Mean (%): 98.1555
[MLOP] Max Score Right SD (%): 9.01144

DRAM Statistics
 CHANNEL 0
 RQ ROW_BUFFER_HIT:    1102703  ROW_BUFFER_MISS:    1059075
 DBUS_CONGESTED:       1643
 WQ ROW_BUFFER_HIT:     111660  ROW_BUFFER_MISS:     363144  FULL:          0

 AVG_CONGESTED_CYCLE: 5
 All warmup complete: 5
Channel 0 Bank busy for read cycles: 0
Channel 0 Bank busy for write cycles: 0
Channel 0
Rank 0
0banks busy for read cycles: 29819485
0banks busy for write cycles: 74445
1banks busy for read cycles: 42836665
1banks busy for write cycles: 9442823
2banks busy for read cycles: 23011517
2banks busy for write cycles: 5139684
3banks busy for read cycles: 14774553
3banks busy for write cycles: 3464947
4banks busy for read cycles: 8364667
4banks busy for write cycles: 2561687
5banks busy for read cycles: 4454534
5banks busy for write cycles: 2044943
6banks busy for read cycles: 2254847
6banks busy for write cycles: 1653756
7banks busy for read cycles: 1088268
7banks busy for write cycles: 1333070
8banks busy for read cycles: 575049
8banks busy for write cycles: 1059289

CPU 0 Branch Prediction Accuracy: 99.9875% MPKI: 0.00111406 Average ROB Occupancy at Mispredict: 59.417
Branch types
NOT_BRANCH: 198384489 99.1092%
BRANCH_DIRECT_JUMP: 218281 0.109049%
BRANCH_INDIRECT: 36380 0.0181748%
BRANCH_CONDITIONAL: 1091853 0.545469%
BRANCH_DIRECT_CALL: 218282 0.10905%
BRANCH_INDIRECT_CALL: 0 0%
BRANCH_RETURN: 218283 0.10905%
BRANCH_OTHER: 0 0%


CPU 1 Branch Prediction Accuracy: 99.9875% MPKI: 0.00111389 Average ROB Occupancy at Mispredict: 59.7265
Branch types
NOT_BRANCH: 198413332 99.1091%
BRANCH_DIRECT_JUMP: 218312 0.109049%
BRANCH_INDIRECT: 36385 0.0181746%
BRANCH_CONDITIONAL: 1092001 0.545464%
BRANCH_DIRECT_CALL: 218312 0.109049%
BRANCH_INDIRECT_CALL: 0 0%
BRANCH_RETURN: 218312 0.109049%
BRANCH_OTHER: 0 0%


CPU 2 Branch Prediction Accuracy: 99.9875% MPKI: 0.001115 Average ROB Occupancy at Mispredict: 59.7085
Branch types
NOT_BRANCH: 198218348 99.1092%
BRANCH_DIRECT_JUMP: 218099 0.109049%
BRANCH_INDIRECT: 36350 0.018175%
BRANCH_CONDITIONAL: 1090933 0.545466%
BRANCH_DIRECT_CALL: 218098 0.109049%
BRANCH_INDIRECT_CALL: 0 0%
BRANCH_RETURN: 218098 0.109049%
BRANCH_OTHER: 0 0%


CPU 3 Branch Prediction Accuracy: 99.9875% MPKI: 0.0011148 Average ROB Occupancy at Mispredict: 59.6592
Branch types
NOT_BRANCH: 198253919 99.109%
BRANCH_DIRECT_JUMP: 218140 0.10905%
BRANCH_INDIRECT: 36356 0.0181747%
BRANCH_CONDITIONAL: 1091140 0.545471%
BRANCH_DIRECT_CALL: 218140 0.10905%
BRANCH_INDIRECT_CALL: 0 0%
BRANCH_RETURN: 218140 0.10905%
BRANCH_OTHER: 0 0%

DRAM PAGES: 1048576
Allocated PAGES: 33852
