
*** ChampSim Multicore Out-of-Order Simulator ***

Warmup Instructions: 50000000
Simulation Instructions: 200000000
Number of CPUs: 4
LLC sets: 8192
LLC ways: 16
Off-chip DRAM Size: 4096 MB Channels: 1 Width: 64-bit Data Rate: 6400 MT/s
CPU 0 runs ./traces/cs/cloud9_phase5_core0.trace.xz
.xz
CPU 1 runs ./traces/cs/cloud9_phase5_core1.trace.xz
.xz
CPU 2 runs ./traces/cs/cloud9_phase5_core2.trace.xz
.xz
CPU 3 runs ./traces/cs/cloud9_phase5_core3.trace.xz
.xz
BTB has LRU replacement policy
ITLB has LRU replacement policy
DTLB has LRU replacement policy
STLB has LRU replacement policy
L1I has LRU replacement policy
L1D has LRU replacement policy
Initialize SRRIP state for L2C
Initialize DRRIP state for LLC
BTB has LRU replacement policy
ITLB has LRU replacement policy
DTLB has LRU replacement policy
STLB has LRU replacement policy
L1I has LRU replacement policy
L1D has LRU replacement policy
Initialize SRRIP state for L2C
Initialize DRRIP state for LLC
BTB has LRU replacement policy
ITLB has LRU replacement policy
DTLB has LRU replacement policy
STLB has LRU replacement policy
L1I has LRU replacement policy
L1D has LRU replacement policy
Initialize SRRIP state for L2C
Initialize DRRIP state for LLC
BTB has LRU replacement policy
ITLB has LRU replacement policy
DTLB has LRU replacement policy
STLB has LRU replacement policy
L1I has LRU replacement policy
L1D has LRU replacement policy
Initialize SRRIP state for L2C
Initialize DRRIP state for LLC
UNIQUE_ASID[0] = €
UNIQUE_ASID[1] = 
Heartbeat CPU 0 instructions: 10000003 cycles: 3202547 heartbeat IPC: 3.12252 cumulative IPC: 3.12252 (Simulation time: 0 hr 1 min 35 sec) 
Heartbeat CPU 1 instructions: 10000002 cycles: 3317869 heartbeat IPC: 3.01398 cumulative IPC: 3.01398 (Simulation time: 0 hr 1 min 38 sec) 
Heartbeat CPU 2 instructions: 10000000 cycles: 3432853 heartbeat IPC: 2.91303 cumulative IPC: 2.91303 (Simulation time: 0 hr 1 min 41 sec) 
Heartbeat CPU 3 instructions: 10000003 cycles: 3439879 heartbeat IPC: 2.90708 cumulative IPC: 2.90708 (Simulation time: 0 hr 1 min 41 sec) 
Heartbeat CPU 0 instructions: 20000002 cycles: 6404743 heartbeat IPC: 3.12286 cumulative IPC: 3.12269 (Simulation time: 0 hr 3 min 6 sec) 
Heartbeat CPU 1 instructions: 20000003 cycles: 6616406 heartbeat IPC: 3.03165 cumulative IPC: 3.02279 (Simulation time: 0 hr 3 min 11 sec) 
Heartbeat CPU 3 instructions: 20000000 cycles: 6776175 heartbeat IPC: 2.99733 cumulative IPC: 2.95152 (Simulation time: 0 hr 3 min 15 sec) 
Heartbeat CPU 2 instructions: 20000001 cycles: 6865156 heartbeat IPC: 2.9135 cumulative IPC: 2.91326 (Simulation time: 0 hr 3 min 17 sec) 
Heartbeat CPU 0 instructions: 30000001 cycles: 9782332 heartbeat IPC: 2.96069 cumulative IPC: 3.06675 (Simulation time: 0 hr 4 min 36 sec) 
Heartbeat CPU 1 instructions: 30000000 cycles: 9906351 heartbeat IPC: 3.03956 cumulative IPC: 3.02836 (Simulation time: 0 hr 4 min 39 sec) 
Heartbeat CPU 2 instructions: 30000001 cycles: 10098348 heartbeat IPC: 3.09292 cumulative IPC: 2.97078 (Simulation time: 0 hr 4 min 43 sec) 
Heartbeat CPU 3 instructions: 30000002 cycles: 10111933 heartbeat IPC: 2.99782 cumulative IPC: 2.96679 (Simulation time: 0 hr 4 min 44 sec) 
Heartbeat CPU 1 instructions: 40000003 cycles: 13203460 heartbeat IPC: 3.03296 cumulative IPC: 3.02951 (Simulation time: 0 hr 5 min 58 sec) 
Heartbeat CPU 0 instructions: 40000002 cycles: 13210098 heartbeat IPC: 2.91735 cumulative IPC: 3.02799 (Simulation time: 0 hr 5 min 58 sec) 
Heartbeat CPU 3 instructions: 40000001 cycles: 13429775 heartbeat IPC: 3.01401 cumulative IPC: 2.97846 (Simulation time: 0 hr 6 min 5 sec) 
Heartbeat CPU 2 instructions: 40000002 cycles: 13531591 heartbeat IPC: 2.9127 cumulative IPC: 2.95605 (Simulation time: 0 hr 6 min 8 sec) 
Heartbeat CPU 1 instructions: 50000002 cycles: 16518410 heartbeat IPC: 3.01664 cumulative IPC: 3.02693 (Simulation time: 0 hr 7 min 42 sec) 
Heartbeat CPU 0 instructions: 50000001 cycles: 16589749 heartbeat IPC: 2.95889 cumulative IPC: 3.01391 (Simulation time: 0 hr 7 min 44 sec) 
Heartbeat CPU 3 instructions: 50000000 cycles: 16790142 heartbeat IPC: 2.97587 cumulative IPC: 2.97794 (Simulation time: 0 hr 7 min 50 sec) 
Heartbeat CPU 2 instructions: 50000001 cycles: 16964449 heartbeat IPC: 2.91302 cumulative IPC: 2.94734 (Simulation time: 0 hr 7 min 54 sec) 

Warmup complete CPU 0 instructions: 51156780 cycles: 16964449 (Simulation time: 0 hr 7 min 54 sec) 
Warmup complete CPU 1 instructions: 51318913 cycles: 16964449 (Simulation time: 0 hr 7 min 54 sec) 
Warmup complete CPU 2 instructions: 50000001 cycles: 16964449 (Simulation time: 0 hr 7 min 54 sec) 
Warmup complete CPU 3 instructions: 50422192 cycles: 16964448 (Simulation time: 0 hr 7 min 54 sec) 

Heartbeat CPU 0 instructions: 60000002 cycles: 28151496 heartbeat IPC: 0.864921 cumulative IPC: 0.790488 (Simulation time: 0 hr 10 min 50 sec) 
Heartbeat CPU 1 instructions: 60000000 cycles: 29250778 heartbeat IPC: 0.7854 cumulative IPC: 0.706565 (Simulation time: 0 hr 11 min 4 sec) 
Heartbeat CPU 3 instructions: 60000000 cycles: 31475684 heartbeat IPC: 0.680942 cumulative IPC: 0.660027 (Simulation time: 0 hr 11 min 37 sec) 
Heartbeat CPU 2 instructions: 60000001 cycles: 32560725 heartbeat IPC: 0.641179 cumulative IPC: 0.641179 (Simulation time: 0 hr 11 min 58 sec) 
Heartbeat CPU 0 instructions: 70000002 cycles: 41302688 heartbeat IPC: 0.760387 cumulative IPC: 0.774223 (Simulation time: 0 hr 14 min 14 sec) 
Heartbeat CPU 1 instructions: 70000000 cycles: 42614633 heartbeat IPC: 0.748287 cumulative IPC: 0.728302 (Simulation time: 0 hr 14 min 33 sec) 
Heartbeat CPU 3 instructions: 70000000 cycles: 45850940 heartbeat IPC: 0.69564 cumulative IPC: 0.67775 (Simulation time: 0 hr 15 min 21 sec) 
Heartbeat CPU 2 instructions: 70000002 cycles: 52100204 heartbeat IPC: 0.511784 cumulative IPC: 0.569221 (Simulation time: 0 hr 16 min 39 sec) 
Heartbeat CPU 1 instructions: 80000003 cycles: 56281514 heartbeat IPC: 0.731696 cumulative IPC: 0.729482 (Simulation time: 0 hr 17 min 42 sec) 
Heartbeat CPU 0 instructions: 80000000 cycles: 58140902 heartbeat IPC: 0.593887 cumulative IPC: 0.700478 (Simulation time: 0 hr 18 min 12 sec) 
Heartbeat CPU 3 instructions: 80000003 cycles: 60641722 heartbeat IPC: 0.676097 cumulative IPC: 0.67719 (Simulation time: 0 hr 18 min 48 sec) 
Heartbeat CPU 1 instructions: 90000003 cycles: 70593753 heartbeat IPC: 0.698703 cumulative IPC: 0.721268 (Simulation time: 0 hr 20 min 36 sec) 
Heartbeat CPU 0 instructions: 90000001 cycles: 74085908 heartbeat IPC: 0.627156 cumulative IPC: 0.680011 (Simulation time: 0 hr 21 min 27 sec) 
Heartbeat CPU 3 instructions: 90000000 cycles: 74953525 heartbeat IPC: 0.698724 cumulative IPC: 0.682505 (Simulation time: 0 hr 21 min 42 sec) 
Heartbeat CPU 2 instructions: 80000001 cycles: 83700983 heartbeat IPC: 0.316448 cumulative IPC: 0.449529 (Simulation time: 0 hr 23 min 47 sec) 
Heartbeat CPU 1 instructions: 100000002 cycles: 84854623 heartbeat IPC: 0.701219 cumulative IPC: 0.717056 (Simulation time: 0 hr 24 min 6 sec) 
Heartbeat CPU 0 instructions: 100000000 cycles: 88161335 heartbeat IPC: 0.710458 cumulative IPC: 0.68603 (Simulation time: 0 hr 25 min 0 sec) 
Heartbeat CPU 3 instructions: 100000001 cycles: 91748862 heartbeat IPC: 0.595403 cumulative IPC: 0.662943 (Simulation time: 0 hr 25 min 54 sec) 
Heartbeat CPU 1 instructions: 110000000 cycles: 98773520 heartbeat IPC: 0.718448 cumulative IPC: 0.717293 (Simulation time: 0 hr 27 min 52 sec) 
Heartbeat CPU 2 instructions: 90000000 cycles: 99412011 heartbeat IPC: 0.636496 cumulative IPC: 0.485157 (Simulation time: 0 hr 28 min 1 sec) 
Heartbeat CPU 0 instructions: 110000000 cycles: 100727875 heartbeat IPC: 0.795764 cumulative IPC: 0.702493 (Simulation time: 0 hr 28 min 24 sec) 
Heartbeat CPU 3 instructions: 110000000 cycles: 106106150 heartbeat IPC: 0.69651 cumulative IPC: 0.668349 (Simulation time: 0 hr 29 min 49 sec) 
Heartbeat CPU 1 instructions: 120000001 cycles: 112241121 heartbeat IPC: 0.742523 cumulative IPC: 0.720859 (Simulation time: 0 hr 31 min 33 sec) 
Heartbeat CPU 0 instructions: 120000002 cycles: 115544655 heartbeat IPC: 0.674911 cumulative IPC: 0.698347 (Simulation time: 0 hr 32 min 21 sec) 
Heartbeat CPU 2 instructions: 100000001 cycles: 116884084 heartbeat IPC: 0.572342 cumulative IPC: 0.500402 (Simulation time: 0 hr 32 min 40 sec) 
Heartbeat CPU 3 instructions: 120000002 cycles: 120623124 heartbeat IPC: 0.688849 cumulative IPC: 0.67122 (Simulation time: 0 hr 33 min 38 sec) 
Heartbeat CPU 1 instructions: 130000001 cycles: 125792147 heartbeat IPC: 0.737952 cumulative IPC: 0.722988 (Simulation time: 0 hr 35 min 0 sec) 
Heartbeat CPU 0 instructions: 130000003 cycles: 131294387 heartbeat IPC: 0.634932 cumulative IPC: 0.689611 (Simulation time: 0 hr 36 min 13 sec) 
Heartbeat CPU 2 instructions: 110000000 cycles: 132496917 heartbeat IPC: 0.640499 cumulative IPC: 0.519334 (Simulation time: 0 hr 36 min 32 sec) 
Heartbeat CPU 3 instructions: 130000001 cycles: 135151772 heartbeat IPC: 0.688295 cumulative IPC: 0.673319 (Simulation time: 0 hr 37 min 13 sec) 
Heartbeat CPU 1 instructions: 140000002 cycles: 140067092 heartbeat IPC: 0.700528 cumulative IPC: 0.720383 (Simulation time: 0 hr 38 min 25 sec) 
Heartbeat CPU 0 instructions: 140000003 cycles: 147013642 heartbeat IPC: 0.636162 cumulative IPC: 0.683151 (Simulation time: 0 hr 39 min 58 sec) 
Heartbeat CPU 3 instructions: 140000002 cycles: 149324198 heartbeat IPC: 0.705596 cumulative IPC: 0.676775 (Simulation time: 0 hr 40 min 33 sec) 
Heartbeat CPU 1 instructions: 150000001 cycles: 154379691 heartbeat IPC: 0.698685 cumulative IPC: 0.718123 (Simulation time: 0 hr 41 min 42 sec) 
Heartbeat CPU 0 instructions: 150000001 cycles: 160501034 heartbeat IPC: 0.741433 cumulative IPC: 0.688627 (Simulation time: 0 hr 43 min 3 sec) 
Heartbeat CPU 2 instructions: 120000000 cycles: 165815532 heartbeat IPC: 0.300133 cumulative IPC: 0.470269 (Simulation time: 0 hr 44 min 9 sec) 
Heartbeat CPU 3 instructions: 150000003 cycles: 166797797 heartbeat IPC: 0.572292 cumulative IPC: 0.66459 (Simulation time: 0 hr 44 min 24 sec) 
Heartbeat CPU 1 instructions: 160000002 cycles: 168290293 heartbeat IPC: 0.718876 cumulative IPC: 0.718193 (Simulation time: 0 hr 44 min 48 sec) 
Heartbeat CPU 0 instructions: 160000003 cycles: 173152749 heartbeat IPC: 0.790407 cumulative IPC: 0.696872 (Simulation time: 0 hr 45 min 59 sec) 
Heartbeat CPU 3 instructions: 160000000 cycles: 181209464 heartbeat IPC: 0.693882 cumulative IPC: 0.667161 (Simulation time: 0 hr 48 min 9 sec) 
Heartbeat CPU 1 instructions: 170000000 cycles: 181825289 heartbeat IPC: 0.738825 cumulative IPC: 0.719886 (Simulation time: 0 hr 48 min 16 sec) 
Heartbeat CPU 2 instructions: 130000002 cycles: 184302293 heartbeat IPC: 0.540928 cumulative IPC: 0.478075 (Simulation time: 0 hr 48 min 46 sec) 
Heartbeat CPU 0 instructions: 170000001 cycles: 189020370 heartbeat IPC: 0.630214 cumulative IPC: 0.690724 (Simulation time: 0 hr 49 min 54 sec) 
Heartbeat CPU 1 instructions: 180000003 cycles: 195543258 heartbeat IPC: 0.728971 cumulative IPC: 0.720584 (Simulation time: 0 hr 51 min 32 sec) 
Heartbeat CPU 3 instructions: 170000001 cycles: 195699691 heartbeat IPC: 0.69012 cumulative IPC: 0.669022 (Simulation time: 0 hr 51 min 34 sec) 
Heartbeat CPU 2 instructions: 140000001 cycles: 200664246 heartbeat IPC: 0.611174 cumulative IPC: 0.48993 (Simulation time: 0 hr 52 min 37 sec) 
Heartbeat CPU 0 instructions: 180000000 cycles: 204355058 heartbeat IPC: 0.652116 cumulative IPC: 0.687565 (Simulation time: 0 hr 53 min 26 sec) 
Heartbeat CPU 1 instructions: 190000000 cycles: 209871236 heartbeat IPC: 0.697935 cumulative IPC: 0.718902 (Simulation time: 0 hr 55 min 4 sec) 
Heartbeat CPU 3 instructions: 180000001 cycles: 210243715 heartbeat IPC: 0.687568 cumulative IPC: 0.670418 (Simulation time: 0 hr 55 min 11 sec) 
Heartbeat CPU 2 instructions: 150000000 cycles: 217573411 heartbeat IPC: 0.591395 cumulative IPC: 0.498482 (Simulation time: 0 hr 56 min 50 sec) 
Heartbeat CPU 0 instructions: 190000002 cycles: 219912798 heartbeat IPC: 0.642767 cumulative IPC: 0.684131 (Simulation time: 0 hr 57 min 25 sec) 
Heartbeat CPU 1 instructions: 200000000 cycles: 223997716 heartbeat IPC: 0.70789 cumulative IPC: 0.718151 (Simulation time: 0 hr 58 min 29 sec) 
Heartbeat CPU 3 instructions: 190000000 cycles: 225289151 heartbeat IPC: 0.664653 cumulative IPC: 0.670001 (Simulation time: 0 hr 58 min 48 sec) 
Heartbeat CPU 0 instructions: 200000003 cycles: 232554488 heartbeat IPC: 0.791034 cumulative IPC: 0.690399 (Simulation time: 1 hr 0 min 53 sec) 
Heartbeat CPU 2 instructions: 160000000 cycles: 233252494 heartbeat IPC: 0.637792 cumulative IPC: 0.508581 (Simulation time: 1 hr 1 min 6 sec) 
Heartbeat CPU 1 instructions: 210000003 cycles: 237506500 heartbeat IPC: 0.740259 cumulative IPC: 0.719505 (Simulation time: 1 hr 2 min 14 sec) 
Heartbeat CPU 3 instructions: 200000002 cycles: 241136030 heartbeat IPC: 0.631039 cumulative IPC: 0.667247 (Simulation time: 1 hr 3 min 15 sec) 
Heartbeat CPU 0 instructions: 210000001 cycles: 245186269 heartbeat IPC: 0.791654 cumulative IPC: 0.696004 (Simulation time: 1 hr 4 min 12 sec) 
Heartbeat CPU 1 instructions: 220000000 cycles: 251129112 heartbeat IPC: 0.734073 cumulative IPC: 0.720352 (Simulation time: 1 hr 5 min 32 sec) 
Heartbeat CPU 3 instructions: 210000002 cycles: 255679154 heartbeat IPC: 0.68761 cumulative IPC: 0.668488 (Simulation time: 1 hr 6 min 27 sec) 
Heartbeat CPU 0 instructions: 220000000 cycles: 262140722 heartbeat IPC: 0.589815 cumulative IPC: 0.688661 (Simulation time: 1 hr 7 min 52 sec) 
Heartbeat CPU 1 instructions: 230000003 cycles: 265287160 heartbeat IPC: 0.706312 cumulative IPC: 0.719552 (Simulation time: 1 hr 8 min 40 sec) 
Heartbeat CPU 2 instructions: 170000001 cycles: 268494647 heartbeat IPC: 0.283751 cumulative IPC: 0.47708 (Simulation time: 1 hr 9 min 25 sec) 
Heartbeat CPU 3 instructions: 220000000 cycles: 270382535 heartbeat IPC: 0.680116 cumulative IPC: 0.669162 (Simulation time: 1 hr 9 min 48 sec) 
Heartbeat CPU 0 instructions: 230000003 cycles: 277485838 heartbeat IPC: 0.651673 cumulative IPC: 0.686482 (Simulation time: 1 hr 11 min 32 sec) 
Heartbeat CPU 1 instructions: 240000000 cycles: 279458085 heartbeat IPC: 0.70567 cumulative IPC: 0.718803 (Simulation time: 1 hr 12 min 1 sec) 
Heartbeat CPU 2 instructions: 180000003 cycles: 284113847 heartbeat IPC: 0.640238 cumulative IPC: 0.486619 (Simulation time: 1 hr 13 min 7 sec) 
Heartbeat CPU 3 instructions: 230000002 cycles: 284605840 heartbeat IPC: 0.703072 cumulative IPC: 0.670964 (Simulation time: 1 hr 13 min 13 sec) 
Heartbeat CPU 0 instructions: 240000003 cycles: 292127866 heartbeat IPC: 0.682966 cumulative IPC: 0.686295 (Simulation time: 1 hr 15 min 2 sec) 
Heartbeat CPU 1 instructions: 250000003 cycles: 293416270 heartbeat IPC: 0.716426 cumulative IPC: 0.718683 (Simulation time: 1 hr 15 min 23 sec) 
Finished CPU 1 instructions: 200000002 cycles: 278203508 cumulative IPC: 0.718898 (Simulation time: 1 hr 15 min 50 sec) 
Heartbeat CPU 3 instructions: 240000001 cycles: 301482999 heartbeat IPC: 0.592517 cumulative IPC: 0.666311 (Simulation time: 1 hr 17 min 39 sec) 
Heartbeat CPU 2 instructions: 190000000 cycles: 302335757 heartbeat IPC: 0.54879 cumulative IPC: 0.490589 (Simulation time: 1 hr 17 min 55 sec) 
Heartbeat CPU 0 instructions: 250000002 cycles: 304878135 heartbeat IPC: 0.784297 cumulative IPC: 0.690635 (Simulation time: 1 hr 18 min 26 sec) 
Finished CPU 0 instructions: 200000002 cycles: 289381717 cumulative IPC: 0.691129 (Simulation time: 1 hr 18 min 44 sec) 
Heartbeat CPU 1 instructions: 260000003 cycles: 307025284 heartbeat IPC: 0.734807 cumulative IPC: 0.719439 (Simulation time: 1 hr 18 min 52 sec) 
Heartbeat CPU 3 instructions: 250000000 cycles: 316067583 heartbeat IPC: 0.685655 cumulative IPC: 0.667254 (Simulation time: 1 hr 20 min 44 sec) 
Finished CPU 3 instructions: 200000000 cycles: 299702498 cumulative IPC: 0.667328 (Simulation time: 1 hr 20 min 51 sec) 
Heartbeat CPU 2 instructions: 200000001 cycles: 317869316 heartbeat IPC: 0.643768 cumulative IPC: 0.498496 (Simulation time: 1 hr 21 min 5 sec) 
Heartbeat CPU 0 instructions: 260000000 cycles: 318784630 heartbeat IPC: 0.719088 cumulative IPC: 0.691946 (Simulation time: 1 hr 21 min 16 sec) 
Heartbeat CPU 1 instructions: 270000000 cycles: 320533232 heartbeat IPC: 0.740305 cumulative IPC: 0.720367 (Simulation time: 1 hr 21 min 37 sec) 
Heartbeat CPU 3 instructions: 260000003 cycles: 330506831 heartbeat IPC: 0.692557 cumulative IPC: 0.668419 (Simulation time: 1 hr 23 min 42 sec) 
Heartbeat CPU 2 instructions: 210000001 cycles: 333489285 heartbeat IPC: 0.640206 cumulative IPC: 0.50549 (Simulation time: 1 hr 24 min 31 sec) 
Heartbeat CPU 1 instructions: 280000000 cycles: 334703508 heartbeat IPC: 0.705703 cumulative IPC: 0.719714 (Simulation time: 1 hr 24 min 52 sec) 
Heartbeat CPU 0 instructions: 270000002 cycles: 334868774 heartbeat IPC: 0.62173 cumulative IPC: 0.688393 (Simulation time: 1 hr 24 min 55 sec) 
Heartbeat CPU 3 instructions: 270000001 cycles: 345243810 heartbeat IPC: 0.678565 cumulative IPC: 0.668875 (Simulation time: 1 hr 27 min 13 sec) 
Heartbeat CPU 1 instructions: 290000001 cycles: 348954530 heartbeat IPC: 0.701704 cumulative IPC: 0.71894 (Simulation time: 1 hr 27 min 56 sec) 
Heartbeat CPU 0 instructions: 280000001 cycles: 350770842 heartbeat IPC: 0.628849 cumulative IPC: 0.685557 (Simulation time: 1 hr 28 min 23 sec) 
Heartbeat CPU 3 instructions: 280000002 cycles: 359490718 heartbeat IPC: 0.701907 cumulative IPC: 0.670249 (Simulation time: 1 hr 30 min 10 sec) 
Heartbeat CPU 1 instructions: 300000002 cycles: 362854679 heartbeat IPC: 0.719417 cumulative IPC: 0.71896 (Simulation time: 1 hr 30 min 57 sec) 
Heartbeat CPU 0 instructions: 290000002 cycles: 364437801 heartbeat IPC: 0.731692 cumulative IPC: 0.687371 (Simulation time: 1 hr 31 min 24 sec) 
Heartbeat CPU 2 instructions: 220000000 cycles: 368867185 heartbeat IPC: 0.282662 cumulative IPC: 0.483088 (Simulation time: 1 hr 32 min 23 sec) 
Heartbeat CPU 3 instructions: 290000003 cycles: 376142144 heartbeat IPC: 0.600549 cumulative IPC: 0.667018 (Simulation time: 1 hr 34 min 24 sec) 
Heartbeat CPU 1 instructions: 310000001 cycles: 376392165 heartbeat IPC: 0.73869 cumulative IPC: 0.719703 (Simulation time: 1 hr 34 min 28 sec) 
Heartbeat CPU 0 instructions: 300000001 cycles: 376990749 heartbeat IPC: 0.796626 cumulative IPC: 0.691181 (Simulation time: 1 hr 34 min 38 sec) 
Heartbeat CPU 2 instructions: 230000003 cycles: 384489101 heartbeat IPC: 0.640127 cumulative IPC: 0.489763 (Simulation time: 1 hr 36 min 38 sec) 
Heartbeat CPU 1 instructions: 320000003 cycles: 389863499 heartbeat IPC: 0.742317 cumulative IPC: 0.72052 (Simulation time: 1 hr 38 min 13 sec) 
Heartbeat CPU 3 instructions: 300000000 cycles: 390463980 heartbeat IPC: 0.698234 cumulative IPC: 0.668214 (Simulation time: 1 hr 38 min 23 sec) 
Heartbeat CPU 0 instructions: 310000000 cycles: 392593814 heartbeat IPC: 0.6409 cumulative IPC: 0.689092 (Simulation time: 1 hr 38 min 57 sec) 
Heartbeat CPU 2 instructions: 240000000 cycles: 402201371 heartbeat IPC: 0.56458 cumulative IPC: 0.493203 (Simulation time: 1 hr 41 min 53 sec) 
Heartbeat CPU 1 instructions: 330000000 cycles: 404377676 heartbeat IPC: 0.688981 cumulative IPC: 0.719338 (Simulation time: 1 hr 42 min 33 sec) 
Heartbeat CPU 3 instructions: 310000000 cycles: 405051006 heartbeat IPC: 0.685541 cumulative IPC: 0.668866 (Simulation time: 1 hr 42 min 44 sec) 
Heartbeat CPU 0 instructions: 320000000 cycles: 407915119 heartbeat IPC: 0.652686 cumulative IPC: 0.687665 (Simulation time: 1 hr 43 min 23 sec) 
Heartbeat CPU 2 instructions: 250000000 cycles: 417743275 heartbeat IPC: 0.643422 cumulative IPC: 0.499028 (Simulation time: 1 hr 45 min 46 sec) 
Finished CPU 2 instructions: 200000000 cycles: 400778873 cumulative IPC: 0.499028 (Simulation time: 1 hr 45 min 46 sec) 

ChampSim completed all CPUs

Total Simulation Statistics (not including warmup)

CPU 0 cumulative IPC: 0.686365 instructions: 275080762 cycles: 400778873
ITLB TOTAL     ACCESS:   48005916  HIT:   35343024  MISS:   12662892  HIT %:    73.6222  MISS %:    26.3778   MPKI: 46.0334
ITLB LOAD      ACCESS:          0  HIT:          0  MISS:          0  HIT %:       -nan  MISS %:       -nan   MPKI: 0
ITLB RFO       ACCESS:          0  HIT:          0  MISS:          0  HIT %:       -nan  MISS %:       -nan   MPKI: 0
ITLB PREFETCH  ACCESS:          0  HIT:          0  MISS:          0  HIT %:       -nan  MISS %:       -nan   MPKI: 0
ITLB WRITEBACK ACCESS:          0  HIT:          0  MISS:          0  HIT %:       -nan  MISS %:       -nan   MPKI: 0
DTLB TOTAL     ACCESS:   32631186  HIT:   20325690  MISS:   12305496  HIT %:    62.2892  MISS %:    37.7108   MPKI: 44.7341
DTLB LOAD      ACCESS:          0  HIT:          0  MISS:          0  HIT %:       -nan  MISS %:       -nan   MPKI: 0
DTLB RFO       ACCESS:          0  HIT:          0  MISS:          0  HIT %:       -nan  MISS %:       -nan   MPKI: 0
DTLB PREFETCH  ACCESS:          0  HIT:          0  MISS:          0  HIT %:       -nan  MISS %:       -nan   MPKI: 0
DTLB WRITEBACK ACCESS:          0  HIT:          0  MISS:          0  HIT %:       -nan  MISS %:       -nan   MPKI: 0
STLB TOTAL     ACCESS:   25216676  HIT:    5379895  MISS:   19836781  HIT %:    21.3347  MISS %:    78.6653   MPKI: 72.1126
STLB LOAD      ACCESS:          0  HIT:          0  MISS:          0  HIT %:       -nan  MISS %:       -nan   MPKI: 0
STLB RFO       ACCESS:          0  HIT:          0  MISS:          0  HIT %:       -nan  MISS %:       -nan   MPKI: 0
STLB PREFETCH  ACCESS:          0  HIT:          0  MISS:          0  HIT %:       -nan  MISS %:       -nan   MPKI: 0
STLB WRITEBACK ACCESS:          0  HIT:          0  MISS:          0  HIT %:       -nan  MISS %:       -nan   MPKI: 0
L1D TOTAL     ACCESS:   43099780  HIT:   42317558  MISS:     782222  HIT %:    98.1851  MISS %:    1.81491   MPKI: 2.84361
L1D LOAD      ACCESS:   24500287  HIT:   23931397  MISS:     568890  HIT %:     97.678  MISS %:    2.32197   MPKI: 2.06808
L1D RFO       ACCESS:   18526120  HIT:   18376845  MISS:     149275  HIT %:    99.1942  MISS %:   0.805754   MPKI: 0.542659
L1D PREFETCH  ACCESS:      73373  HIT:       9316  MISS:      64057  HIT %:    12.6968  MISS %:    87.3032   MPKI: 0.232866
L1D WRITEBACK ACCESS:          0  HIT:          0  MISS:          0  HIT %:       -nan  MISS %:       -nan   MPKI: 0
L1I TOTAL     ACCESS:   60637280  HIT:   60307836  MISS:     329444  HIT %:    99.4567  MISS %:   0.543303   MPKI: 1.19763
L1I LOAD      ACCESS:   60637280  HIT:   60307836  MISS:     329444  HIT %:    99.4567  MISS %:   0.543303   MPKI: 1.19763
L1I RFO       ACCESS:          0  HIT:          0  MISS:          0  HIT %:       -nan  MISS %:       -nan   MPKI: 0
L1I PREFETCH  ACCESS:          0  HIT:          0  MISS:          0  HIT %:       -nan  MISS %:       -nan   MPKI: 0
L1I WRITEBACK ACCESS:          0  HIT:          0  MISS:          0  HIT %:       -nan  MISS %:       -nan   MPKI: 0
L2C TOTAL     ACCESS:   21966486  HIT:   21207645  MISS:     758841  HIT %:    96.5455  MISS %:    3.45454   MPKI: 2.75861
L2C LOAD      ACCESS:     897802  HIT:     564618  MISS:     333184  HIT %:    62.8889  MISS %:    37.1111   MPKI: 1.21122
L2C RFO       ACCESS:     148363  HIT:      87850  MISS:      60513  HIT %:    59.2129  MISS %:    40.7871   MPKI: 0.219983
L2C PREFETCH  ACCESS:     343016  HIT:      39885  MISS:     303131  HIT %:    11.6277  MISS %:    88.3723   MPKI: 1.10197
L2C WRITEBACK ACCESS:     457809  HIT:     430306  MISS:      27503  HIT %:    93.9925  MISS %:    6.00753   MPKI: 0.0999815
PSCL5 TOTAL     ACCESS:   19836781  HIT:   19836781  MISS:          0  HIT %:        100  MISS %:          0   MPKI: 0
PSCL5 LOAD      ACCESS:          0  HIT:          0  MISS:          0  HIT %:       -nan  MISS %:       -nan   MPKI: 0
PSCL5 RFO       ACCESS:          0  HIT:          0  MISS:          0  HIT %:       -nan  MISS %:       -nan   MPKI: 0
PSCL5 PREFETCH  ACCESS:          0  HIT:          0  MISS:          0  HIT %:       -nan  MISS %:       -nan   MPKI: 0
PSCL5 WRITEBACK ACCESS:          0  HIT:          0  MISS:          0  HIT %:       -nan  MISS %:       -nan   MPKI: 0
PSCL4 TOTAL     ACCESS:   10448669  HIT:   10448669  MISS:          0  HIT %:        100  MISS %:          0   MPKI: 0
PSCL4 LOAD      ACCESS:          0  HIT:          0  MISS:          0  HIT %:       -nan  MISS %:       -nan   MPKI: 0
PSCL4 RFO       ACCESS:          0  HIT:          0  MISS:          0  HIT %:       -nan  MISS %:       -nan   MPKI: 0
PSCL4 PREFETCH  ACCESS:          0  HIT:          0  MISS:          0  HIT %:       -nan  MISS %:       -nan   MPKI: 0
PSCL4 WRITEBACK ACCESS:          0  HIT:          0  MISS:          0  HIT %:       -nan  MISS %:       -nan   MPKI: 0
PSCL3 TOTAL     ACCESS:   19815884  HIT:   19815673  MISS:        211  HIT %:    99.9989  MISS %:  0.0010648   MPKI: 0.000767047
PSCL3 LOAD      ACCESS:          0  HIT:          0  MISS:          0  HIT %:       -nan  MISS %:       -nan   MPKI: 0
PSCL3 RFO       ACCESS:          0  HIT:          0  MISS:          0  HIT %:       -nan  MISS %:       -nan   MPKI: 0
PSCL3 PREFETCH  ACCESS:          0  HIT:          0  MISS:          0  HIT %:       -nan  MISS %:       -nan   MPKI: 0
PSCL3 WRITEBACK ACCESS:          0  HIT:          0  MISS:          0  HIT %:       -nan  MISS %:       -nan   MPKI: 0
PSCL2 TOTAL     ACCESS:   19836781  HIT:   19554277  MISS:     282504  HIT %:    98.5759  MISS %:    1.42414   MPKI: 1.02699
PSCL2 LOAD      ACCESS:          0  HIT:          0  MISS:          0  HIT %:       -nan  MISS %:       -nan   MPKI: 0
PSCL2 RFO       ACCESS:          0  HIT:          0  MISS:          0  HIT %:       -nan  MISS %:       -nan   MPKI: 0
PSCL2 PREFETCH  ACCESS:          0  HIT:          0  MISS:          0  HIT %:       -nan  MISS %:       -nan   MPKI: 0
PSCL2 WRITEBACK ACCESS:          0  HIT:          0  MISS:          0  HIT %:       -nan  MISS %:       -nan   MPKI: 0
=== CPU 0 L1D Prefetcher Statistics ===
[MLOP] History of tracked zone:
IIIIIIIIIIIIIIIIIIIIIIIIIIIIIIIIIIIIIIIIIIIIIIIIIIIIIIIIIIIIIIII
IIIIIIIIIIIIIIIIIIIIIIIIIIIIIIIIIIIIIAIIIIIIIIIIIIIIIIIIIIIIIIII
IIIIIIIIIIIIIIIIIIIIIIIIIIIIIIIIIIIIIAIIIIIIIIIIIIIIIIIIIIIIIAII
IIIIIIIIIIIIIAIIIIIIIIIIIIIIIIIIIIIIIAIIIIIIIIIIIIIIIIIIIIIIIAII
IAIIIIIIIIIIIAIIIIIIIIIIIIIIIIIIIIIIIAIIIIIIIIIIIIIIIIIIIIIIIAII
IIIIIIIIIAIIIIIIIIIIIIIIIIIIIIIIIIIIIIIIIIIIIIIIIIIIIIIIIIIIIIII
IIIIIIIIIAIIIIIIIIIIIIIIIIIIIIIIIIIIIIIAIIIIIIIIIIII2IIIIIIIIIII
IIIIIIIIIAIIIIIIIIIIIIIIIIIIIIIIIIIIIIIA2IIIIIIIIIII2IIIIIIIIIII
IIIIIIIIIA2IIIIIIIIIIIIIIIIIIIIIIIIIIIIA2IIIIIIIIIII2IIIIIIIIIII
IIIIIIIIIA2IIIIIIIIIIIIIIIIIIIIIIIIIIIIA2IIA2IIIIIII2IIIIIIIIIII
IIIIIIIIIA2IIIIIIIA2IIIIIIIIIIIIIIIIIIIA2IIA2IIIIIII2IIIIIIIIIII
IIIIIIIIIA2IIIIIIIA2IIIIIIIIIIIIIIIIIIAA2IIA2IIIIIII2IIIIIIIIIII
IIIIIIIIIA2IIIIIIIA2IIIIIIIIIIIIIIIIIIAA2IIA2IIIIIII2IIA2IIIIIII
IIIIIIIIIA2IIIIIIIA2IIIIIIIIIIIIIIIIIAAA2IIA2IIIIIII2IIA2IIIIIII
IIIIIIIIIA2IIIIIIIA2IIIIIIIIIIIIIIIIIAAA2IIA2IIIIIII2IIA2IIIIAII
IIIIIIIIIA2IIAIIIIA2IIIIIIIIIIIIIIIIIAAA2IIA2IIIIIII2IIA2IIIIAII
IAIIIIIIIA2IIAIIIIA2IIIIIIIIIIIIIIIIIAAA2IIA2IIIIIII2IIA2IIIIAII
IAIA2IIIIA2IIAIIIIA2IIIIIIIIIIIIIIIIIAAA2IIA2IIIIIII2IIA2IIIIAII
IIIIIIIIIIIIIIIIIIIIIIIIIIIIIIIIIIIIIIIIIIIIIIIIIIIIIIIA122II2II
IIIIIIIIIIIIIIIIIIIIIIIIIIIIIIIIIIIIIIIIIIIA122II2IIIIIA122II2II
IIIIIIIIIIIIIIIIIIIIIIIIIIIIIIIIIIIIIA122IIA122II2IIIIIA122II2II
IIIIIIIIIIIIIIIIIIIIIIIIIIIIIIIIIIIIIA122IIA122II2IIIIIA122IIA12
IIIIIIIIIIIIIA122II2IIIIIIIIIIIIIIIIIA122IIA122II2IIIIIA122IIA12
IA122II2IIIIIA122II2IIIIIIIIIIIIIIIIIA122IIA122II2IIIIIA122IIA12
IIIIIIIIIIIIIIIIIIIIIIIIIIIIIIIIIIIIIAIIIIIIIIIIIIIIIIIIIIIIIIII
IIIIIIIIIIIIIIIIIIIIIIIIIIIIIIIIIIIIIA1IIIIIIIIIIIIIIIIIIIIIIIII
IIIIIIIIIIIIIIIIIIIIIIIIIIIIIIIIIIIIIA1IIIIIIIIIIIIIIIIA1IIIIIII
IIIIIIIIIIIIIIIIIIIIIIIIIIIIIIIIIIIIIA1IIIIAIIIIIIIIIIIA1IIIIIII
IIIIIIIIIIIIIIIIIIIIIIIIIIIIIIIIIIIIIA1IIIIAIIIIIIIIIIIA1IIIIAII
IIIIIIIIIIIIIAIIIIIIIIIIIIIIIIIIIIIIIA1IIIIAIIIIIIIIIIIA1IIIIAII
IAIIIIIIIIIIIAIIIIIIIIIIIIIIIIIIIIIIIA1IIIIAIIIIIIIIIIIA1IIIIAII
IIIIIIIIIIIIIIIIIIIIIIIIIIIIIAIIIIIIIIIIIIIIIIIIIIIIIIIIIIIIIIII
IIIIIIIIIIIIIIIIIIIIIIIIIIIIIAIIIIIIIIIIIIIIIIIIIIIIIIIAIIIIIIII
IIIIIIIIIIIIIIIIIIIIIIIIIIIIIAIIIIIIIIIIIIIAIIIIIIIIIIIAIIIIIIII
IIIIIIIIIIIIIIIIIIIIIIIIIIIIIAIIIIIIIIIIIIIAIIIIIIIIIIIAIIIAIIII
IIIIIIIIIIIIIIIIIIIIIIIIIIIIIAIIIIIIIAIIIIIAIIIIIIIIIIIAIIIAIIII
IIIIIIIIIIIIIIIIIIIIIIIIIIIIIAIIIIIIIAIIIIIAIIIIIIIIIIIAIIIAIAII
IIIIIIIIIIIIIAIIIIIIIIIIIIIIIAIIIIIIIAIIIIIAIIIIIIIIIIIAIIIAIAII
IAIIIIIIIIIIIAIIIIIIIIIIIIIIIAIIIIIIIAIIIIIAIIIIIIIIIIIAIIIAIAII
IIIIIIIIIIIIIIIIIIIIIIIIIIIIIIIIIIIIIIIIIIIIIIIIIIIIIIIAIIIIIIII
IIIIIIIIIIIIIIIIIIIIIIIIIIIIIIIIIIIIIIIIIIIA2IIIIIIIIIIAIIIIIIII
IIIIIIIIIIIIIIIIIIIIIIIIIIIIIIIIIIIIIA2IIIIA2IIIIIIIIIIAIIIIIIII
IIIIIIIIIIIIIIIIIIIIIIIIIIIIIIIIIIIIIA2IIIIA2IIIIIIIIIIAIIIIIA2I
IIIIIIIIIIIIIA2IIIIIIIIIIIIIIIIIIIIIIA2IIIIA2IIIIIIIIIIAIIIIIA2I
IA2IIIIIIIIIIA2IIIIIIIIIIIIIIIIIIIIIIA2IIIIA2IIIIIIIIIIAIIIIIA2I
IIIIIIIIIIIIIIIIIIIIIIIIIIIIIIIIIIIIIIIIIIIIIIIIIIIIIIIIIIIIIA2I
IIIIIIIIIIIIIIIIIIIIIIIIIIIIIIIIA2IIIIIIIIIIIIIIIIIIIIIIIIIIIA2I
IIIIIIIIIIIIIIIIIIIIIIIIIIIIIIIIA2IIIIIIIIIIIIIIIIIIIIIAIIIIIA2I
IIIIIIIIIIIIIIIIIIIIIIIIIIIIIIIIA2IIIIIIIIIAIIIIIIIIIIIAIIIIIA2I
IIIIIIIIIIIIIIIIIIIIIIIIIIIIIIIIA2IIIA2IIIIAIIIIIIIIIIIAIIIIIA2I
IIIIIIIIIIIIIA2IIIIIIIIIIIIIIIIIA2IIIA2IIIIAIIIIIIIIIIIAIIIIIA2I
IA2IIIIIIIIIIA2IIIIIIIIIIIIIIIIIA2IIIA2IIIIAIIIIIIIIIIIAIIIIIA2I
IIIIIIIIIIIIIIIIIIIIIIIIIIIIIIIIIIIIIA111IIIIIIIIIIIIIIIIIIIIIII
IIIIIIIIIIIIIIIIIIIIIIIIIIIIIIIIIIIIIA111IIIIIIIIIIIIIIIIIIIIA11
IIIIIIIIIIIIIAIIIIIIIIIIIIIIIIIIIIIIIA111IIIIIIIIIIIIIIIIIIIIA11
IA111I22I22IIAIIIIIIIIIIIIIIIIIIIIIIIA111IIIIIIIIIIIIIIIIIIIIA11
IIIIIIIIIAIIIIIIIIIIII2IIIIIIIIIIIIIIIIIIIIIIIIIIIIIIIIIIIIIIIII
IIIIIIIIIAIIIIIIIIIIII2IIIIIIIIIIIIIIIIAIIIIIIIIIIII2IIIIIIIIIII
IIIIIIIIIAIIIIIIIIIIII2IIIIIIIIIIIIIIIIA2IIIIIIIIIII2IIIIIIIIIII
IIIIIIIIIA2IIIIIIIIIII2IIIIIIIIIIIIIIIIA2IIIIIIIIIII2IIIIIIIIIII
IIIIIIIIIA2IIIIIIIIIII2IIIIIIIIIIIIIIIIA2IIA2IIIIIII2IIIIIIIIIII
IIIIIIIIIA2IIIIIIIA2II2IIIIIIIIIIIIIIIIA2IIA2IIIIIII2IIIIIIIIIII
IIIIIIIIIA2IIIIIIIA2II2IIIIIIIIIIIIIIIAA2IIA2IIIIIII2IIIIIIIIIII
IIIIIIIIIA2IIIIIIIA2II2IIIIIIIIIIIIIIIAA2IIA2IIIIIII2IIA2IIIIIII
IIIIIIIIIA2IIIIIIIA2II2IIIIIIIIIIIIIIAAA2IIA2IIIIIII2IIA2IIIIIII
IIIIIIIIIA2IIIIIIIA2II2IIIIIIIIIIIIIIAAA2IIA2IIIIIII2IIA2IIIIAII
IIIIIIIIIA2IIAIIIIA2II2IIIIIIIIIIIIIIAAA2IIA2IIIIIII2IIA2IIIIAII
IAIIIIIIIA2IIAIIIIA2II2IIIIIIIIIIIIIIAAA2IIA2IIIIIII2IIA2IIIIAII
IAIA2IIIIA2IIAIIIIA2II2IIIIIIIIIIIIIIAAA2IIA2IIIIIII2IIA2IIIIAII
IIIIIIIIIIIIIIIIIIIIIIIIIIIIIIIIIIIIIIIIIIIIIIIIIIIIIIIA1II2I2II
IIIIIIIIIIIIIIIIIIIIIIIIIIIIIIIIIIIIIIIIIIIA1II2I2IIIIIA1II2I2II
IIIIIIIIIIIIIIIIIIIIIIIIIIIIIIIIIIIIIA1II2IA1II2I2IIIIIA1II2I2II
IIIIIIIIIIIIIIIIIIIIIIIIIIIIIIIIIIIIIA1II2IA1II2I2IIIIIA1II2IA1I
IIIIIIIIIIIIIA1II2I2IIIIIIIIIIIIIIIIIA1II2IA1II2I2IIIIIA1II2IA1I
IA1II2I2IIIIIA1II2I2IIIIIIIIIIIIIIIIIA1II2IA1II2I2IIIIIA1II2IA1I
IIIIIIIIIIIIIIIIIIIIIIIIIIIIIIIIIIIIIAIIIIIIIIIIIIIIIIIIIIIIIIII
IIIIIIIIIIIIIIIIIIIIIIIIIIIIIIIIIIIIIA2IIIIIIIIIIIIIIIIIIIIIIIII
IIIIIIIIIIIIIIIIIIIIIIIIIIIIIIIIIIIIIA2IIIIIIIIIIIIIIIIAIIIIIIII
IIIIIIIIIIIIIIIIIIIIIIIIIIIIIIIIIIIIIA2IIIIAIIIIIIIIIIIAIIIIIIII
IIIIIIIIIIIIIIIIIIIIIIIIIIIIIIIIIIIIIA2IIIIAIIIIIIIIIIIAIIIIIAII
IIIIIIIIIIIIIAIIIIIIIIIIIIIIIIIIIIIIIA2IIIIAIIIIIIIIIIIAIIIIIAII
IAIIIIIIIIIIIAIIIIIIIIIIIIIIIIIIIIIIIA2IIIIAIIIIIIIIIIIAIIIIIAII
IIIIIIIIIIIIIIIIIIIIIIIIIIIIIAIIIIIIIIIIIIIIIIIIIIIIIIIIIIIIIIII
IIIIIIIIIIIIIIIIIIIIIIIIIIIIIAIIIIIIIIIIIIIIIIIIIIIIIIIAIIIIIIII
IIIIIIIIIIIIIIIIIIIIIIIIIIIIIAIIIIIIIIIIIIIAIIIIIIIIIIIAIIIIIIII
IIIIIIIIIIIIIIIIIIIIIIIIIIIIIAIIIIIIIIIIIIIAIIIIIIIIIIIAIIIAIIII
IIIIIIIIIIIIIIIIIIIIIIIIIIIIIAIIIIIIIAIIIIIAIIIIIIIIIIIAIIIAIIII
IIIIIIIIIIIIIIIIIIIIIIIIIIIIIAIIIIIIIAIIIIIAIIIIIIIIIIIAIIIAIAII
IIIIIIIIIIIIIAIIIIIIIIIIIIIIIAIIIIIIIAIIIIIAIIIIIIIIIIIAIIIAIAII
IA2IIIIIIIIIIAIIIIIIIIIIIIIIIAIIIIIIIAIIIIIAIIIIIIIIIIIAIIIAIAII
IA2IIIIIIIIIIAIIIIIIIIIIIIIIIAIIIIIIIAIIIIIAIIIIIIIIIIIAIIIA2AII
IA2IIIIIIIIIIAIIIIIIIIIIIIIIIA2IIIIIIAIIIIIAIIIIIIIIIIIAIIIA2AII
IIIIIIIIIIIIIIIIIIIIIIIIIIIIIIIIIIIIIIIIIIIIIIIIIIIIIIIA2IIIIIII
IIIIIIIIIIIIIIIIIIIIIIIIIIIIIIIIIIIIIIIIIIIA2IIIIIIIIIIA2IIIIIII
IIIIIIIIIIIIIIIIIIIIIIIIIIIIIIIIIIIIIA2IIIIA2IIIIIIIIIIA2IIIIIII
IIIIIIIIIIIIIIIIIIIIIIIIIIIIIIIIIIIIIA2IIIIA2IIIIIIIIIIA2IIIIA2I
IIIIIIIIIIIIIA2IIIIIIIIIIIIIIIIIIIIIIA2IIIIA2IIIIIIIIIIA2IIIIA2I
IA2IIIIIIIIIIA2IIIIIIIIIIIIIIIIIIIIIIA2IIIIA2IIIIIIIIIIA2IIIIA2I
IIIIIIIIIIIIIIIIIIIIIIIIIIIIIIIIIIIIIIIIIIIIIIIIIIIIIIIIIIIIIA2I
IIIIIIIIIIIIIIIIIIIIIIIIIIIIIIIIA2IIIIIIIIIIIIIIIIIIIIIIIIIIIA2I
IIIIIIIIIIIIIIIIIIIIIIIIIIIIIIIIA2IIIIIIIIIIIIIIIIIIIIIAIIIIIA2I
IIIIIIIIIIIIIIIIIIIIIIIIIIIIIIIIA2IIIIIIIIIAIIIIIIIIIIIAIIIIIA2I
IIIIIIIIIIIIIIIIIIIIIIIIIIIIIIIIA2IIIAIIIIIAIIIIIIIIIIIAIIIIIA2I
IIIIIIIIIIIIIAIIIIIIIIIIIIIIIIIIA2IIIAIIIIIAIIIIIIIIIIIAIIIIIA2I
IAIIIIIIIIIIIAIIIIIIIIIIIIIIIIIIA2IIIAIIIIIAIIIIIIIIIIIAIIIIIA2I
IIIIIIIIIIIIIIIIIIIIIIIIIIIIIIIIIIIIIAIIIIIIIIIIIIIIIIIIIIIIIIII
IIIIIIIIIIIIIIIIIIIIIIIIIIIIIIIIIIIIIAIIIIIIIIIIIIIIIIIIIIIIIAII
IIIIIIIIIIIIIAIIIIIIIIIIIIIIIIIIIIIIIAIIIIIIIIIIIIIIIIIIIIIIIAII
IAIIIIIIIIIIIAIIIIIIIIIIIIIIIIIIIIIIIAIIIIIIIIIIIIIIIIIIIIIIIAII
IIIIIIIIIA2IIIIIIIIIIIIIIIIIIIIIIIIIIIIIIIIIIIIIIIIIIIIIIIIIIIII
IIIIIIIIIA2IIIIIIIIIIIIIIIIIIIIIIIIIIIIA2IIIIIIIIIIIIIIIIIIIIIII
IIIIIIIIIA2IIIIIIIIIIIIIIIIIIIIIIIIIIIIA2IIA2IIIIIIIIIIIIIIIIIII
IIIIIIIIIA2IIIIIIIA2IIIIIIIIIIIIIIIIIIIA2IIA2IIIIIIIIIIIIIIIIIII
IIIIIIIIIA2IIIIIIIA2IIIIIIIIIIIIIIIIIIAA2IIA2IIIIIIIIIIIIIIIIIII
IIIIIIIIIA2IIIIIIIA2IIIIIIIIIIIIIIIIIIAA2IIA2IIIIIIIIIIA2IIIIIII
IIIIIIIIIA2IIIIIIIA2IIIIIIIIIIIIIIIIIAAA2IIA2IIIIIIIIIIA2IIIIIII
IIIIIIIIIA2IIIIIIIA2IIIIIIIIIIIIIIIIIAAA2IIA2IIIIIIIIIIA2IIIIA2I
IIIIIIIIIA2IIAIIIIA2IIIIIIIIIIIIIIIIIAAA2IIA2IIIIIIIIIIA2IIIIA2I
IAIIIIIIIA2IIAIIIIA2IIIIIIIIIIIIIIIIIAAA2IIA2IIIIIIIIIIA2IIIIA2I
IAIAIIIIIA2IIAIIIIA2IIIIIIIIIIIIIIIIIAAA2IIA2IIIIIIIIIIA2IIIIA2I
IAIA2IIIIA2IIAIIIIA2IIIIIIIIIIIIIIIIIAAA2IIA2IIIIIIIIIIA2IIIIA2I
IIIIIIIIIIIIIIIIIIIIIIIIIIIIIIIIIIIIIIIIIIIIIIIIIIIIIIIA2IIIIIII
IIIIIIIIIIIIIIIIIIIIIIIIIIIIIIIIIIIIIIIIIIIA1II2IIIIIIIA2IIIIIII
IIIIIIIIIIIIIIIIIIIIIIIIIIIIIIIIIIIIIA1II2IA1II2IIIIIIIA2IIIIIII
IIIIIIIIIIIIIIIIIIIIIIIIIIIIIIIIIIIIIA1II2IA1II2IIIIIIIA2IIIIA1I
IIIIIIIIIIIIIA1II2IIIIIIIIIIIIIIIIIIIA1II2IA1II2IIIIIIIA2IIIIA1I
IA1II2IIIIIIIA1II2IIIIIIIIIIIIIIIIIIIA1II2IA1II2IIIIIIIA2IIIIA1I
IIIIIIIIIIIIIIIIIIIIIIIIIIIIIIIIIIIIIAIIIIIIIIIIIIIIIIIIIIIIIIII
IIIIIIIIIIIIIIIIIIIIIIIIIIIIIIIIIIIIIA2IIIIIIIIIIIIIIIIIIIIIIIII
IIIIIIIIIIIIIIIIIIIIIIIIIIIIIIIIIIIIIA2IIIIIIIIIIIIIIIIA2IIIIIII
IIIIIIIIIIIIIIIIIIIIIIIIIIIIIIIIIIIIIA2IIIIAIIIIIIIIIIIA2IIIIIII
IIIIIIIIIIIIIIIIIIIIIIIIIIIIIIIIIIIIIA2IIIIAIIIIIIIIIIIA2IIIIAII
IIIIIIIIIIIIIAIIIIIIIIIIIIIIIIIIIIIIIA2IIIIAIIIIIIIIIIIA2IIIIAII
IAIIIIIIIIIIIAIIIIIIIIIIIIIIIIIIIIIIIA2IIIIAIIIIIIIIIIIA2IIIIAII
IIIIIIIIIIIIIIIIIIIIIIIIIIIIIAIIIIIIIIIIIIIIIIIIIIIIIIIIIIIIIIII
IIIIIIIIIIIIIIIIIIIIIIIIIIIIIAIIIIIIIIIIIIIIIIIIIIIIIIIA2IIIIIII
IIIIIIIIIIIIIIIIIIIIIIIIIIIIIAIIIIIIIIIIIIIA2IIIIIIIIIIA2IIIIIII
IIIIIIIIIIIIIIIIIIIIIIIIIIIIIAIIIIIIIIIIIIIA2IIIIIIIIIIA2IIA2III
IIIIIIIIIIIIIIIIIIIIIIIIIIIIIAIIIIIIIA2IIIIA2IIIIIIIIIIA2IIA2III
IIIIIIIIIIIIIIIIIIIIIIIIIIIIIAIIIIIIIA2IIIIA2IIIIIIIIIIA2IIA2A2I
IIIIIIIIIIIIIA2IIIIIIIIIIIIIIAIIIIIIIA2IIIIA2IIIIIIIIIIA2IIA2A2I
IA2IIIIIIIIIIA2IIIIIIIIIIIIIIAIIIIIIIA2IIIIA2IIIIIIIIIIA2IIA2A2I
IIIIIIIIIIIIIIIIIIIIIIIIIIIIIIIIIIIIIIIIIIIIIIIIIIIIIIIA2IIIIIII
IIIIIIIIIIIIIIIIIIIIIIIIIIIIIIIIIIIIIIIIIIIA2IIIIIIIIIIA2IIIIIII
IIIIIIIIIIIIIIIIIIIIIIIIIIIIIIIIIIIIIA2IIIIA2IIIIIIIIIIA2IIIIIII
IIIIIIIIIIIIIIIIIIIIIIIIIIIIIIIIIIIIIA2IIIIA2IIIIIIIIIIA2IIIIA2I
IIIIIIIIIIIIIA2IIIIIIIIIIIIIIIIIIIIIIA2IIIIA2IIIIIIIIIIA2IIIIA2I
IA2IIIIIIIIIIA2IIIIIIIIIIIIIIIIIIIIIIA2IIIIA2IIIIIIIIIIA2IIIIA2I
IIIIIIIIIIIIIIIIIIIIIIIIIIIIIIIIIIIIIIIIIIIIIIIIIIIIIIIIIIIIIA1I
IIIIIIIIIIIIIIIIIIIIIIIIIIIIIIIIA1IIIIIIIIIIIIIIIIIIIIIIIIIIIA1I
IIIIIIIIIIIIIIIIIIIIIIIIIIIIIIIIA1IIIIIIIIIIIIIIIIIIIIIAIIIIIA1I
IIIIIIIIIIIIIIIIIIIIIIIIIIIIIIIIA1IIIIIIIIIA2IIIIIIIIIIAIIIIIA1I
IIIIIIIIIIIIIIIIIIIIIIIIIIIIIIIIA1IIIA2IIIIA2IIIIIIIIIIAIIIIIA1I
IIIIIIIIIIIIIA2IIIIIIIIIIIIIIIIIA1IIIA2IIIIA2IIIIIIIIIIAIIIIIA1I
IA2IIIIIIIIIIA2IIIIIIIIIIIIIIIIIA1IIIA2IIIIA2IIIIIIIIIIAIIIIIA1I
IIIIIIIIIIIIIIIIIIIIIIIIIIIIIIIIIIIIIAIII2IIIIIIIIIIIIIIIIIIIIII
IIIIIIIIIIIIIIIIIIIIIIIIIIIIIIIIIIIIIAIII2IIIIIIIIIIIIIIIIIIIAII
IIIIIIIIIIIIIAIII2IIIIIIIIIIIIIIIIIIIAIII2IIIIIIIIIIIIIIIIIIIAII
IAIII2IIIIIIIAIII2IIIIIIIIIIIIIIIIIIIAIII2IIIIIIIIIIIIIIIIIIIAII
IIIIIIIIIAI2IIIIIIIII22IIIIIIIIIIIIIIIIIIIIIIIIIIIIIIIIIIIIIIIII
IIIIIIIIIAI2IIIIIIIII22IIIIIIIIIIIIIIIIAI2IIIIIIIII22IIIIIIIIIII
IIIIIIIIIAI2IIIIIIIII22IIIIIIIIIIIIIIIIA22IIIIIIIII22IIIIIIIIIII
IIIIIIIIIA22IIIIIIIII22IIIIIIIIIIIIIIIIA22IIIIIIIII22IIIIIIIIIII
IIIIIIIIIA22IIIIIIIII22IIIIIIIIIIIIIIIIA22IA2IIIIII22IIIIIIIIIII
IIIIIIIIIA22IIIIIIA2I22IIIIIIIIIIIIIIIIA22IA2IIIIII22IIIIIIIIIII
IIIIIIIIIA22IIIIIIA2I22IIIIIIIIIIIIIIIAA22IA2IIIIII22IIIIIIIIIII
IIIIIIIIIA22IIIIIIA2I22IIIIIIIIIIIIIIIAA22IA2IIIIII22IIA2IIIIIII
IIIIIIIIIA22IIIIIIA2I22IIIIIIIIIIIIIIAAA22IA2IIIIII22IIA2IIIIIII
IIIIIIIIIA22IIIIIIA2I22IIIIIIIIIIIIIIAAA22IA2IIIIII22IIA2IIIIAII
IIIIIIIIIA22IAIIIIA2I22IIIIIIIIIIIIIIAAA22IA2IIIIII22IIA2IIIIAII
IAIIIIIIIA22IAIIIIA2I22IIIIIIIIIIIIIIAAA22IA2IIIIII22IIA2IIIIAII
IAIA2IIIIA22IAIIIIA2I22IIIIIIIIIIIIIIAAA22IA2IIIIII22IIA2IIIIAII
IIIIIIIIIIIIIIIIIIIIIIIIIIIIIIIIIIIIIIIIIIIIIIIIIIIIIIIA1II2I2II
IIIIIIIIIIIIIIIIIIIIIIIIIIIIIIIIIIIIIIIIIIIA1II2I2IIIIIA1II2I2II
IIIIIIIIIIIIIIIIIIIIIIIIIIIIIIIIIIIIIA1II2IA1II2I2IIIIIA1II2I2II
IIIIIIIIIIIIIIIIIIIIIIIIIIIIIIIIIIIIIA1II2IA1II2I2IIIIIA1II2IA1I
IIIIIIIIIIIIIA1II2I2IIIIIIIIIIIIIIIIIA1II2IA1II2I2IIIIIA1II2IA1I
IA1II2I2IIIIIA1II2I2IIIIIIIIIIIIIIIIIA1II2IA1II2I2IIIIIA1II2IA1I
IIIIIIIIIIIIIIIIIIIIIIIIIIIIIIIIIIIIIAIIIIIIIIIIIIIIIIIIIIIIIIII
IIIIIIIIIIIIIIIIIIIIIIIIIIIIIIIIIIIIIA1IIIIIIIIIIIIIIIIIIIIIIIII
IIIIIIIIIIIIIIIIIIIIIIIIIIIIIIIIIIIIIA1IIIIIIIIIIIIIIIIA1IIIIIII
IIIIIIIIIIIIIIIIIIIIIIIIIIIIIIIIIIIIIA1IIIIAIIIIIIIIIIIA1IIIIIII
IIIIIIIIIIIIIIIIIIIIIIIIIIIIIIIIIIIIIA1IIIIAIIIIIIIIIIIA1IIIIAII
IIIIIIIIIIIIIAIIIIIIIIIIIIIIIIIIIIIIIA1IIIIAIIIIIIIIIIIA1IIIIAII
IAIIIIIIIIIIIAIIIIIIIIIIIIIIIIIIIIIIIA1IIIIAIIIIIIIIIIIA1IIIIAII
IIIIIIIIIIIIIIIIIIIIIIIIIIIIIAIIIIIIIIIIIIIIIIIIIIIIIIIIIIIIIIII
IIIIIIIIIIIIIIIIIIIIIIIIIIIIIAIIIIIIIIIIIIIIIIIIIIIIIIIA2IIIIIII
IIIIIIIIIIIIIIIIIIIIIIIIIIIIIAIIIIIIIIIIIIIA2IIIIIIIIIIA2IIIIIII
IIIIIIIIIIIIIIIIIIIIIIIIIIIIIAIIIIIIIIIIIIIA2IIIIIIIIIIA2IIA2III
IIIIIIIIIIIIIIIIIIIIIIIIIIIIIAIIIIIIIA2IIIIA2IIIIIIIIIIA2IIA2III
IIIIIIIIIIIIIIIIIIIIIIIIIIIIIAIIIIIIIA2IIIIA2IIIIIIIIIIA2IIA2A2I
IIIIIIIIIIIIIA2IIIIIIIIIIIIIIAIIIIIIIA2IIIIA2IIIIIIIIIIA2IIA2A2I
IA2IIIIIIIIIIA2IIIIIIIIIIIIIIAIIIIIIIA2IIIIA2IIIIIIIIIIA2IIA2A2I
IA2IIIIIIIIIIA2IIIIIIIIIIIIIIA2IIIIIIA2IIIIA2IIIIIIIIIIA2IIA2A2I
IIIIIIIIIIIIIIIIIIIIIIIIIIIIIIIIIIIIIIIIIIIIIIIIIIIIIIIA2IIIIIII
IIIIIIIIIIIIIIIIIIIIIIIIIIIIIIIIIIIIIIIIIIIA2IIIIIIIIIIA2IIIIIII
IIIIIIIIIIIIIIIIIIIIIIIIIIIIIIIIIIIIIA2IIIIA2IIIIIIIIIIA2IIIIIII
IIIIIIIIIIIIIIIIIIIIIIIIIIIIIIIIIIIIIA2IIIIA2IIIIIIIIIIA2IIIIA2I
IIIIIIIIIIIIIA2IIIIIIIIIIIIIIIIIIIIIIA2IIIIA2IIIIIIIIIIA2IIIIA2I
IA2IIIIIIIIIIA2IIIIIIIIIIIIIIIIIIIIIIA2IIIIA2IIIIIIIIIIA2IIIIA2I
IIIIIIIIIIIIIIIIIIIIIIIIIIIIIIIIIIIIIIIIIIIIIIIIIIIIIIIIIIIIIA1I
IIIIIIIIIIIIIIIIIIIIIIIIIIIIIIIIA1IIIIIIIIIIIIIIIIIIIIIIIIIIIA1I
IIIIIIIIIIIIIIIIIIIIIIIIIIIIIIIIA1IIIIIIIIIIIIIIIIIIIIIAIIIIIA1I
IIIIIIIIIIIIIIIIIIIIIIIIIIIIIIIIA1IIIIIIIIIA2IIIIIIIIIIAIIIIIA1I
IIIIIIIIIIIIIIIIIIIIIIIIIIIIIIIIA1IIIA2IIIIA2IIIIIIIIIIAIIIIIA1I
IIIIIIIIIIIIIA2IIIIIIIIIIIIIIIIIA1IIIA2IIIIA2IIIIIIIIIIAIIIIIA1I
IA2IIIIIIIIIIA2IIIIIIIIIIIIIIIIIA1IIIA2IIIIA2IIIIIIIIIIAIIIIIA1I
IIIIIIIIIIIIIIIIIIIIIIIIIIIIIIIIIIIIIA2IIIIIIIIIIIIIIIIIIIIIIIII
IIIIIIIIIIIIIIIIIIIIIIIIIIIIIIIIIIIIIA2IIIIIIIIIIIIIIIIIIIIIIA2I
IIIIIIIIIIIIIA2IIIIIIIIIIIIIIIIIIIIIIA2IIIIIIIIIIIIIIIIIIIIIIA2I
IA2IIIIIIIIIIA2IIIIIIIIIIIIIIIIIIIIIIA2IIIIIIIIIIIIIIIIIIIIIIA2I
IIIIIIIIIAI2IIIIIIIII2IIIIIIIIIIIIIIIIIIIIIIIIIIIIIIIIIIIIIIIIII
IIIIIIIIIAI2IIIIIIIII2IIIIIIIIIIIIIIIIIAI2IIIIIIIII2IIIIIIIIIIII
IIIIIIIIIAI2IIIIIIIII2IIIIIIIIIIIIIIIIIA22IIIIIIIII2IIIIIIIIIIII
IIIIIIIIIA22IIIIIIIII2IIIIIIIIIIIIIIIIIA22IIIIIIIII2IIIIIIIIIIII
IIIIIIIIIA22IIIIIIIII2IIIIIIIIIIIIIIIIIA22IA2IIIIII2IIIIIIIIIIII
IIIIIIIIIA22IIIIIIA2I2IIIIIIIIIIIIIIIIIA22IA2IIIIII2IIIIIIIIIIII
IIIIIIIIIA22IIIIIIA2I2IIIIIIIIIIIIIIIIAA22IA2IIIIII2IIIIIIIIIIII
IIIIIIIIIA22IIIIIIA2I2IIIIIIIIIIIIIIIIAA22IA2IIIIII2IIIA2IIIIIII
IIIIIIIIIA22IIIIIIA2I2IIIIIIIIIIIIIIIAAA22IA2IIIIII2IIIA2IIIIIII
IIIIIIIIIA22IIIIIIA2I2IIIIIIIIIIIIIIIAAA22IA2IIIIII2IIIA2IIIIAII
IIIIIIIIIA22IAIIIIA2I2IIIIIIIIIIIIIIIAAA22IA2IIIIII2IIIA2IIIIAII
IAIIIIIIIA22IAIIIIA2I2IIIIIIIIIIIIIIIAAA22IA2IIIIII2IIIA2IIIIAII
IAIAIIIIIA22IAIIIIA2I2IIIIIIIIIIIIIIIAAA22IA2IIIIII2IIIA2IIIIAII
IAIA2IIIIA22IAIIIIA2I2IIIIIIIIIIIIIIIAAA22IA2IIIIII2IIIA2IIIIAII
IIIIIIIIIIIIIIIIIIIIIIIIIIIIIIIIIIIIIIIIIIIIIIIIIIIIIIIA11I2I2II
IIIIIIIIIIIIIIIIIIIIIIIIIIIIIIIIIIIIIIIIIIIA11I2I2IIIIIA11I2I2II
IIIIIIIIIIIIIIIIIIIIIIIIIIIIIIIIIIIIIA11I2IA11I2I2IIIIIA11I2I2II
IIIIIIIIIIIIIIIIIIIIIIIIIIIIIIIIIIIIIA11I2IA11I2I2IIIIIA11I2IA11
IIIIIIIIIIIIIA11I2I2IIIIIIIIIIIIIIIIIA11I2IA11I2I2IIIIIA11I2IA11
IA11I2I2IIIIIA11I2I2IIIIIIIIIIIIIIIIIA11I2IA11I2I2IIIIIA11I2IA11
IIIIIIIIIIIIIIIIIIIIIIIIIIIIIIIIIIIIIAIIIIIIIIIIIIIIIIIIIIIIIIII
IIIIIIIIIIIIIIIIIIIIIIIIIIIIIIIIIIIIIA1IIIIIIIIIIIIIIIIIIIIIIIII
IIIIIIIIIIIIIIIIIIIIIIIIIIIIIIIIIIIIIA1IIIIIIIIIIIIIIIIA1IIIIIII
IIIIIIIIIIIIIIIIIIIIIIIIIIIIIIIIIIIIIA1IIIIAIIIIIIIIIIIA1IIIIIII
IIIIIIIIIIIIIIIIIIIIIIIIIIIIIIIIIIIIIA1IIIIAIIIIIIIIIIIA1IIIIAII
IIIIIIIIIIIIIAIIIIIIIIIIIIIIIIIIIIIIIA1IIIIAIIIIIIIIIIIA1IIIIAII
IAIIIIIIIIIIIAIIIIIIIIIIIIIIIIIIIIIIIA1IIIIAIIIIIIIIIIIA1IIIIAII
IIIIIIIIIIIIIIIIIIIIIIIIIIIIIAIIIIIIIIIIIIIIIIIIIIIIIIIIIIIIIIII
IIIIIIIIIIIIIIIIIIIIIIIIIIIIIAIIIIIIIIIIIIIIIIIIIIIIIIIAIIIIIIII
IIIIIIIIIIIIIIIIIIIIIIIIIIIIIAIIIIIIIIIIIIIAIIIIIIIIIIIAIIIIIIII
IIIIIIIIIIIIIIIIIIIIIIIIIIIIIAIIIIIIIIIIIIIAIIIIIIIIIIIAIIIAIIII
IIIIIIIIIIIIIIIIIIIIIIIIIIIIIAIIIIIIIAIIIIIAIIIIIIIIIIIAIIIAIIII
IIIIIIIIIIIIIIIIIIIIIIIIIIIIIAIIIIIIIAIIIIIAIIIIIIIIIIIAIIIAIAII
IIIIIIIIIIIIIAIIIIIIIIIIIIIIIAIIIIIIIAIIIIIAIIIIIIIIIIIAIIIAIAII
IAIIIIIIIIIIIAIIIIIIIIIIIIIIIAIIIIIIIAIIIIIAIIIIIIIIIIIAIIIAIAII
IAIIIIIIIIIIIAIIIIIIIIIIIIIIIAIIIIIIIAIIIIIAIIIIIIIIIIIAIIIA2AII
IAIIIIIIIIIIIAIIIIIIIIIIIIIIIA2IIIIIIAIIIIIAIIIIIIIIIIIAIIIA2AII
IIIIIIIIIIIIIIIIIIIIIIIIIIIIIIIIIIIIIIIIIIIIIIIIIIIIIIIA2IIIIIII
IIIIIIIIIIIIIIIIIIIIIIIIIIIIIIIIIIIIIIIIIIIA2IIIIIIIIIIA2IIIIIII
IIIIIIIIIIIIIIIIIIIIIIIIIIIIIIIIIIIIIA2IIIIA2IIIIIIIIIIA2IIIIIII
IIIIIIIIIIIIIIIIIIIIIIIIIIIIIIIIIIIIIA2IIIIA2IIIIIIIIIIA2IIIIA2I
IIIIIIIIIIIIIA2IIIIIIIIIIIIIIIIIIIIIIA2IIIIA2IIIIIIIIIIA2IIIIA2I
IA2IIIIIIIIIIA2IIIIIIIIIIIIIIIIIIIIIIA2IIIIA2IIIIIIIIIIA2IIIIA2I
IIIIIIIIIIIIIIIIIIIIIIIIIIIIIIIIIIIIIIIIIIIIIIIIIIIIIIIIIIIIIA2I
IIIIIIIIIIIIIIIIIIIIIIIIIIIIIIIIA2IIIIIIIIIIIIIIIIIIIIIIIIIIIA2I
IIIIIIIIIIIIIIIIIIIIIIIIIIIIIIIIA2IIIIIIIIIIIIIIIIIIIIIA2IIIIA2I
IIIIIIIIIIIIIIIIIIIIIIIIIIIIIIIIA2IIIIIIIIIAIIIIIIIIIIIA2IIIIA2I
IIIIIIIIIIIIIIIIIIIIIIIIIIIIIIIIA2IIIAIIIIIAIIIIIIIIIIIA2IIIIA2I
IIIIIIIIIIIIIAIIIIIIIIIIIIIIIIIIA2IIIAIIIIIAIIIIIIIIIIIA2IIIIA2I
IAIIIIIIIIIIIAIIIIIIIIIIIIIIIIIIA2IIIAIIIIIAIIIIIIIIIIIA2IIIIA2I
IIIIIIIIIIIIIIIIIIIIIIIIIIIIIIIIIIIIIAIIIIIIIIIIIIIIIIIIIIIIIIII
IIIIIIIIIIIIIIIIIIIIIIIIIIIIIIIIIIIIIAIIIIIIIIIIIIIIIIIIIIIIIAII
IIIIIIIIIIIIIAIIIIIIIIIIIIIIIIIIIIIIIAIIIIIIIIIIIIIIIIIIIIIIIAII
IAIIIIIIIIIIIAIIIIIIIIIIIIIIIIIIIIIIIAIIIIIIIIIIIIIIIIIIIIIIIAII
IIIIIIIIIAIIIIIIIIIIIIIIIIIIIIIIIIIIIIIIIIIIIIIIIIIIIIIIIIIIIIII
IIIIIIIIIAIIIIIIIIIIIIIIIIIIIIIIIIIIIIIA2IIIIIIIIIIIIIIIIIIIIIII
IIIIIIIIIA2IIIIIIIIIIIIIIIIIIIIIIIIIIIIA2IIIIIIIIIIIIIIIIIIIIIII
IIIIIIIIIA2IIIIIIIIIIIIIIIIIIIIIIIIIIIIA2IIA2IIIIIIIIIIIIIIIIIII
IIIIIIIIIA2IIIIIIIA2IIIIIIIIIIIIIIIIIIIA2IIA2IIIIIIIIIIIIIIIIIII
IIIIIIIIIA2IIIIIIIA2IIIIIIIIIIIIIIIIIIAA2IIA2IIIIIIIIIIIIIIIIIII
IIIIIIIIIA2IIIIIIIA2IIIIIIIIIIIIIIIIIIAA2IIA2IIIIIIIIIIA2IIIIIII
IIIIIIIIIA2IIIIIIIA2IIIIIIIIIIIIIIIIIAAA2IIA2IIIIIIIIIIA2IIIIIII
IIIIIIIIIA2IIIIIIIA2IIIIIIIIIIIIIIIIIAAA2IIA2IIIIIIIIIIA2IIIIA2I
IIIIIIIIIA2IIAIIIIA2IIIIIIIIIIIIIIIIIAAA2IIA2IIIIIIIIIIA2IIIIA2I
IAIIIIIIIA2IIAIIIIA2IIIIIIIIIIIIIIIIIAAA2IIA2IIIIIIIIIIA2IIIIA2I
IAIAIIIIIA2IIAIIIIA2IIIIIIIIIIIIIIIIIAAA2IIA2IIIIIIIIIIA2IIIIA2I
IAIA2IIIIA2IIAIIIIA2IIIIIIIIIIIIIIIIIAAA2IIA2IIIIIIIIIIA2IIIIA2I
IIIIIIIIIIIIIIIIIIIIIIIIIIIIIIIIIIIIIIIIIIIIIIIIIIIIIIIA2IIIIIII
IIIIIIIIIIIIIIIIIIIIIIIIIIIIIIIIIIIIIIIIIIIA1II2IIIIIIIA2IIIIIII
IIIIIIIIIIIIIIIIIIIIIIIIIIIIIIIIIIIIIA1II2IA1II2IIIIIIIA2IIIIIII
IIIIIIIIIIIIIIIIIIIIIIIIIIIIIIIIIIIIIA1II2IA1II2IIIIIIIA2IIIIA1I
IIIIIIIIIIIIIA1II2IIIIIIIIIIIIIIIIIIIA1II2IA1II2IIIIIIIA2IIIIA1I
IA1II2IIIIIIIA1II2IIIIIIIIIIIIIIIIIIIA1II2IA1II2IIIIIIIA2IIIIA1I
IIIIIIIIIIIIIIIIIIIIIIIIIIIIIIIIIIIIIAIIIIIIIIIIIIIIIIIIIIIIIIII
IIIIIIIIIIIIIIIIIIIIIIIIIIIIIIIIIIIIIA2IIIIIIIIIIIIIIIIIIIIIIIII
IIIIIIIIIIIIIIIIIIIIIIIIIIIIIIIIIIIIIA2IIIIIIIIIIIIIIIIA2IIIIIII
IIIIIIIIIIIIIIIIIIIIIIIIIIIIIIIIIIIIIA2IIIIAIIIIIIIIIIIA2IIIIIII
IIIIIIIIIIIIIIIIIIIIIIIIIIIIIIIIIIIIIA2IIIIAIIIIIIIIIIIA2IIIIAII
IIIIIIIIIIIIIAIIIIIIIIIIIIIIIIIIIIIIIA2IIIIAIIIIIIIIIIIA2IIIIAII
IAIIIIIIIIIIIAIIIIIIIIIIIIIIIIIIIIIIIA2IIIIAIIIIIIIIIIIA2IIIIAII
IIIIIIIIIIIIIIIIIIIIIIIIIIIIIA2IIIIIIIIIIIIIIIIIIIIIIIIIIIIIIIII
IIIIIIIIIIIIIIIIIIIIIIIIIIIIIA2IIIIIIIIIIIIIIIIIIIIIIIIA2IIIIIII
IIIIIIIIIIIIIIIIIIIIIIIIIIIIIA2IIIIIIIIIIIIAIIIIIIIIIIIA2IIIIIII
IIIIIIIIIIIIIIIIIIIIIIIIIIIIIA2IIIIIIIIIIIIAIIIIIIIIIIIA2IIAIIII
IIIIIIIIIIIIIIIIIIIIIIIIIIIIIA2IIIIIIAIIIIIAIIIIIIIIIIIA2IIAIIII
IIIIIIIIIIIIIIIIIIIIIIIIIIIIIA2IIIIIIAIIIIIAIIIIIIIIIIIA2IIAIAII
IIIIIIIIIIIIIAIIIIIIIIIIIIIIIA2IIIIIIAIIIIIAIIIIIIIIIIIA2IIAIAII
IAIIIIIIIIIIIAIIIIIIIIIIIIIIIA2IIIIIIAIIIIIAIIIIIIIIIIIA2IIAIAII
IIIIIIIIIIIIIIIIIIIIIIIIIIIIIIIIIIIIIIIIIIIIIIIIIIIIIIIA2IIIIIII
IIIIIIIIIIIIIIIIIIIIIIIIIIIIIIIIIIIIIIIIIIIA2IIIIIIIIIIA2IIIIIII
IIIIIIIIIIIIIIIIIIIIIIIIIIIIIIIIIIIIIA2IIIIA2IIIIIIIIIIA2IIIIIII
IIIIIIIIIIIIIIIIIIIIIIIIIIIIIIIIIIIIIA2IIIIA2IIIIIIIIIIA2IIIIA2I
IIIIIIIIIIIIIA2IIIIIIIIIIIIIIIIIIIIIIA2IIIIA2IIIIIIIIIIA2IIIIA2I
IA2IIIIIIIIIIA2IIIIIIIIIIIIIIIIIIIIIIA2IIIIA2IIIIIIIIIIA2IIIIA2I
IIIIIIIIIIIIIIIIIIIIIIIIIIIIIIIIIIIIIIIIIIIIIIIIIIIIIIIIIII2IA1I
IIIIIIIIIIIIIIIIIIIIIIIIIIIIII2IA1IIIIIIIIIIIIIIIIIIIIIIIII2IA1I
IIIIIIIIIIIIIIIIIIIIIIIIIIIIII2IA1IIIIIIIIIIIIIIIIIIIIIAIII2IA1I
IIIIIIIIIIIIIIIIIIIIIIIIIIIIII2IA1IIIIIIIIIAIIIIIIIIIIIAIII2IA1I
IIIIIIIIIIIIIIIIIIIIIIIIIIIIII2IA1IIIA2IIIIAIIIIIIIIIIIAIII2IA1I
IIIIIIIIIIIIIA2IIIIIIIIIIIIIII2IA1IIIA2IIIIAIIIIIIIIIIIAIII2IA1I
IA2IIIIIIIIIIA2IIIIIIIIIIIIIII2IA1IIIA2IIIIAIIIIIIIIIIIAIII2IA1I
IIIIIIIIIIIIIIIIIIIIIIIIIIIIIIIIIIIIIAIIIIIIIIIIIIIIIIIIIIIIIIII
IIIIIIIIIIIIIIIIIIIIIIIIIIIIIIIIIIIIIAIIIIIIIIIIIIIIIIIIIIIIIAII
IIIIIIIIIIIIIAIIIIIIIIIIIIIIIIIIIIIIIAIIIIIIIIIIIIIIIIIIIIIIIAII
IAIIIIIIIIIIIAIIIIIIIIIIIIIIIIIIIIIIIAIIIIIIIIIIIIIIIIIIIIIIIAII
IIIIIIIIIA2IIIIIIIIIIIIIIIIIIIIIIIIIIIIIIIIIIIIIIIIIIIIIIIIIIIII
IIIIIIIIIA2IIIIIIIIIIIIIIIIIIIIIIIIIIIIA2IIIIIIIIIIIIIIIIIIIIIII
IIIIIIIIIA2IIIIIIIIIIIIIIIIIIIIIIIIIIIIA1IIIIIIIIIIIIIIIIIIIIIII
IIIIIIIIIA1IIIIIIIIIIIIIIIIIIIIIIIIIIIIA1IIIIIIIIIIIIIIIIIIIIIII
IIIIIIIIIA1IIIIIIIIIIIIIIIIIIIIIIIIIIIIA1IIA1IIIIIIIIIIIIIIIIIII
IIIIIIIIIA1IIIIIIIAIIIIIIIIIIIIIIIIIIIIA1IIA1IIIIIIIIIIIIIIIIIII
IIIIIIIIIA1IIIIIIIAIIIIIIIIIIIIIIIIIIIAA1IIA1IIIIIIIIIIIIIIIIIII
IIIIIIIIIA1IIIIIIIAIIIIIIIIIIIIIIIIIIIAA1IIA1IIIIIIIIIIA2IIIIIII
IIIIIIIIIA1IIIIIIIAIIIIIIIIIIIIIIIIIIAAA1IIA1IIIIIIIIIIA2IIIIIII
IIIIIIIIIA1IIIIIIIAIIIIIIIIIIIIIIIIIIAAA1IIA1IIIIIIIIIIA2IIIIA2I
IIIIIIIIIA1IIA2IIIAIIIIIIIIIIIIIIIIIIAAA1IIA1IIIIIIIIIIA2IIIIA2I
IA2IIIIIIA1IIA2IIIAIIIIIIIIIIIIIIIIIIAAA1IIA1IIIIIIIIIIA2IIIIA2I
IA2AIIIIIA1IIA2IIIAIIIIIIIIIIIIIIIIIIAAA1IIA1IIIIIIIIIIA2IIIIA2I
IA2A2IIIIA1IIA2IIIAIIIIIIIIIIIIIIIIIIAAA1IIA1IIIIIIIIIIA2IIIIA2I
IIIIIIIIIIIIIIIIIIIIIIIIIIIIIIIIIIIIIIIIIIIIIIIIIIIIIIIA2IIIIIII
IIIIIIIIIIIIIIIIIIIIIIIIIIIIIIIIIIIIIIIIIIIA2IIIIIIIIIIA2IIIIIII
IIIIIIIIIIIIIIIIIIIIIIIIIIIIIIIIIIIIIA2IIIIA2IIIIIIIIIIA2IIIIIII
IIIIIIIIIIIIIIIIIIIIIIIIIIIIIIIIIIIIIA2IIIIA2IIIIIIIIIIA2IIIIA2I
IIIIIIIIIIIIIA2IIIIIIIIIIIIIIIIIIIIIIA2IIIIA2IIIIIIIIIIA2IIIIA2I
IA2IIIIIIIIIIA2IIIIIIIIIIIIIIIIIIIIIIA2IIIIA2IIIIIIIIIIA2IIIIA2I
IIIIIIIIIIIIIIIIIIIIIIIIIIIIIIIIIIIIIAIIIIIIIIIIIIIIIIIIIIIIIIII
IIIIIIIIIIIIIIIIIIIIIIIIIIIIIIIIIIIIIA2IIIIIIIIIIIIIIIIIIIIIIIII
IIIIIIIIIIIIIIIIIIIIIIIIIIIIIIIIIIIIIA2IIIIIIIIIIIIIIIIA2IIIIIII
IIIIIIIIIIIIIIIIIIIIIIIIIIIIIIIIIIIIIA2IIIIAIIIIIIIIIIIA2IIIIIII
IIIIIIIIIIIIIIIIIIIIIIIIIIIIIIIIIIIIIA2IIIIAIIIIIIIIIIIA2IIIIAII
IIIIIIIIIIIIIAIIIIIIIIIIIIIIIIIIIIIIIA2IIIIAIIIIIIIIIIIA2IIIIAII
IAIIIIIIIIIIIAIIIIIIIIIIIIIIIIIIIIIIIA2IIIIAIIIIIIIIIIIA2IIIIAII
IIIIIIIIIIIIIIIIIIIIIIIIIIIIIA2IIIIIIIIIIIIIIIIIIIIIIIIIIIIIIIII
IIIIIIIIIIIIIIIIIIIIIIIIIIIIIA2IIIIIIIIIIIIIIIIIIIIIIIIA2IIIIIII
IIIIIIIIIIIIIIIIIIIIIIIIIIIIIA2IIIIIIIIIIIIAIIIIIIIIIIIA2IIIIIII
IIIIIIIIIIIIIIIIIIIIIIIIIIIIIA2IIIIIIIIIIIIAIIIIIIIIIIIA2IIAIIII
IIIIIIIIIIIIIIIIIIIIIIIIIIIIIA2IIIIIIAIIIIIAIIIIIIIIIIIA2IIAIIII
IIIIIIIIIIIIIIIIIIIIIIIIIIIIIA2IIIIIIAIIIIIAIIIIIIIIIIIA2IIAIAII
IIIIIIIIIIIIIAIIIIIIIIIIIIIIIA2IIIIIIAIIIIIAIIIIIIIIIIIA2IIAIAII
IAIIIIIIIIIIIAIIIIIIIIIIIIIIIA2IIIIIIAIIIIIAIIIIIIIIIIIA2IIAIAII
IIIIIIIIIIIIIIIIIIIIIIIIIIIIIIIIIIIIIIIIIIIIIIIIIIIIIIIAIIIIIIII
IIIIIIIIIIIIIIIIIIIIIIIIIIIIIIIIIIIIIIIIIIIA2IIIIIIIIIIAIIIIIIII
IIIIIIIIIIIIIIIIIIIIIIIIIIIIIIIIIIIIIA2IIIIA2IIIIIIIIIIAIIIIIIII
IIIIIIIIIIIIIIIIIIIIIIIIIIIIIIIIIIIIIA2IIIIA2IIIIIIIIIIAIIIIIA2I
IIIIIIIIIIIIIA2IIIIIIIIIIIIIIIIIIIIIIA2IIIIA2IIIIIIIIIIAIIIIIA2I
IA2IIIIIIIIIIA2IIIIIIIIIIIIIIIIIIIIIIA2IIIIA2IIIIIIIIIIAIIIIIA2I
IIIIIIIIIIIIIIIIIIIIIIIIIIIIIIIIIIIIIIIIIIIIIIIIIIIIIIIIIII2IA1I
IIIIIIIIIIIIIIIIIIIIIIIIIIIIII2IA1IIIIIIIIIIIIIIIIIIIIIIIII2IA1I
IIIIIIIIIIIIIIIIIIIIIIIIIIIIII2IA1IIIIIIIIIIIIIIIIIIIIIAIII2IA1I
IIIIIIIIIIIIIIIIIIIIIIIIIIIIII2IA1IIIIIIIIIAIIIIIIIIIIIAIII2IA1I
IIIIIIIIIIIIIIIIIIIIIIIIIIIIII2IA1IIIA2IIIIAIIIIIIIIIIIAIII2IA1I
IIIIIIIIIIIIIA2IIIIIIIIIIIIIII2IA1IIIA2IIIIAIIIIIIIIIIIAIII2IA1I
IA2IIIIIIIIIIA2IIIIIIIIIIIIIII2IA1IIIA2IIIIAIIIIIIIIIIIAIII2IA1I
[MLOP] Prefetch Degree Mean: 1.04526
[MLOP] Prefetch Degree SD: 1.25657
[MLOP] Max Score Left Mean (%): 18.7545
[MLOP] Max Score Left SD (%): 7.74655
[MLOP] Max Score Right Mean (%): 32.9612
[MLOP] Max Score Right SD (%): 8.55572
LLC TOTAL     ACCESS:    1029027  HIT:     458543  MISS:     570484  HIT %:    44.5608  MISS %:    55.4392   MPKI: 2.07388
LLC LOAD      ACCESS:     331544  HIT:     104583  MISS:     226961  HIT %:    31.5442  MISS %:    68.4558   MPKI: 0.82507
LLC RFO       ACCESS:      55832  HIT:       8669  MISS:      47163  HIT %:    15.5269  MISS %:    84.4731   MPKI: 0.171451
LLC PREFETCH  ACCESS:     309449  HIT:      57016  MISS:     252433  HIT %:     18.425  MISS %:     81.575   MPKI: 0.917669
LLC WRITEBACK ACCESS:     297692  HIT:     263925  MISS:      33767  HIT %:    88.6571  MISS %:    11.3429   MPKI: 0.122753

RAW hits: 5450052
Loads Generated: 42717755
Loads sent to L1D: 37267703
Stores Generated: 19563732
Stores sent to L1D: 19563732

CPU 1 cumulative IPC: 0.719135 instructions: 288213935 cycles: 400778873
ITLB TOTAL     ACCESS:   54032844  HIT:   41184402  MISS:   12848442  HIT %:    76.2211  MISS %:    23.7789   MPKI: 44.5795
ITLB LOAD      ACCESS:          0  HIT:          0  MISS:          0  HIT %:       -nan  MISS %:       -nan   MPKI: 0
ITLB RFO       ACCESS:          0  HIT:          0  MISS:          0  HIT %:       -nan  MISS %:       -nan   MPKI: 0
ITLB PREFETCH  ACCESS:          0  HIT:          0  MISS:          0  HIT %:       -nan  MISS %:       -nan   MPKI: 0
ITLB WRITEBACK ACCESS:          0  HIT:          0  MISS:          0  HIT %:       -nan  MISS %:       -nan   MPKI: 0
DTLB TOTAL     ACCESS:   34421619  HIT:   19208196  MISS:   15213423  HIT %:    55.8027  MISS %:    44.1973   MPKI: 52.7852
DTLB LOAD      ACCESS:          0  HIT:          0  MISS:          0  HIT %:       -nan  MISS %:       -nan   MPKI: 0
DTLB RFO       ACCESS:          0  HIT:          0  MISS:          0  HIT %:       -nan  MISS %:       -nan   MPKI: 0
DTLB PREFETCH  ACCESS:          0  HIT:          0  MISS:          0  HIT %:       -nan  MISS %:       -nan   MPKI: 0
DTLB WRITEBACK ACCESS:          0  HIT:          0  MISS:          0  HIT %:       -nan  MISS %:       -nan   MPKI: 0
STLB TOTAL     ACCESS:   28394492  HIT:    6545249  MISS:   21849243  HIT %:    23.0511  MISS %:    76.9489   MPKI: 75.8091
STLB LOAD      ACCESS:          0  HIT:          0  MISS:          0  HIT %:       -nan  MISS %:       -nan   MPKI: 0
STLB RFO       ACCESS:          0  HIT:          0  MISS:          0  HIT %:       -nan  MISS %:       -nan   MPKI: 0
STLB PREFETCH  ACCESS:          0  HIT:          0  MISS:          0  HIT %:       -nan  MISS %:       -nan   MPKI: 0
STLB WRITEBACK ACCESS:          0  HIT:          0  MISS:          0  HIT %:       -nan  MISS %:       -nan   MPKI: 0
L1D TOTAL     ACCESS:   42583670  HIT:   41721339  MISS:     862331  HIT %:     97.975  MISS %:    2.02503   MPKI: 2.99198
L1D LOAD      ACCESS:   25831923  HIT:   25323181  MISS:     508742  HIT %:    98.0306  MISS %:    1.96943   MPKI: 1.76515
L1D RFO       ACCESS:   16461110  HIT:   16394954  MISS:      66156  HIT %:    99.5981  MISS %:   0.401893   MPKI: 0.229538
L1D PREFETCH  ACCESS:     290637  HIT:       3204  MISS:     287433  HIT %:    1.10241  MISS %:    98.8976   MPKI: 0.99729
L1D WRITEBACK ACCESS:          0  HIT:          0  MISS:          0  HIT %:       -nan  MISS %:       -nan   MPKI: 0
L1I TOTAL     ACCESS:   65824514  HIT:   65794548  MISS:      29966  HIT %:    99.9545  MISS %:  0.0455241   MPKI: 0.103971
L1I LOAD      ACCESS:   65824514  HIT:   65794548  MISS:      29966  HIT %:    99.9545  MISS %:  0.0455241   MPKI: 0.103971
L1I RFO       ACCESS:          0  HIT:          0  MISS:          0  HIT %:       -nan  MISS %:       -nan   MPKI: 0
L1I PREFETCH  ACCESS:          0  HIT:          0  MISS:          0  HIT %:       -nan  MISS %:       -nan   MPKI: 0
L1I WRITEBACK ACCESS:          0  HIT:          0  MISS:          0  HIT %:       -nan  MISS %:       -nan   MPKI: 0
L2C TOTAL     ACCESS:   23360321  HIT:   22516634  MISS:     843687  HIT %:    96.3884  MISS %:    3.61162   MPKI: 2.92729
L2C LOAD      ACCESS:     538614  HIT:     196051  MISS:     342563  HIT %:    36.3992  MISS %:    63.6008   MPKI: 1.18857
L2C RFO       ACCESS:      66156  HIT:      50194  MISS:      15962  HIT %:    75.8722  MISS %:    24.1278   MPKI: 0.0553825
L2C PREFETCH  ACCESS:     478532  HIT:      38880  MISS:     439652  HIT %:    8.12485  MISS %:    91.8752   MPKI: 1.52544
L2C WRITEBACK ACCESS:     393558  HIT:     367257  MISS:      26301  HIT %:    93.3171  MISS %:    6.68288   MPKI: 0.0912551
PSCL5 TOTAL     ACCESS:   21849243  HIT:   21849243  MISS:          0  HIT %:        100  MISS %:          0   MPKI: 0
PSCL5 LOAD      ACCESS:          0  HIT:          0  MISS:          0  HIT %:       -nan  MISS %:       -nan   MPKI: 0
PSCL5 RFO       ACCESS:          0  HIT:          0  MISS:          0  HIT %:       -nan  MISS %:       -nan   MPKI: 0
PSCL5 PREFETCH  ACCESS:          0  HIT:          0  MISS:          0  HIT %:       -nan  MISS %:       -nan   MPKI: 0
PSCL5 WRITEBACK ACCESS:          0  HIT:          0  MISS:          0  HIT %:       -nan  MISS %:       -nan   MPKI: 0
PSCL4 TOTAL     ACCESS:   21849243  HIT:   21849243  MISS:          0  HIT %:        100  MISS %:          0   MPKI: 0
PSCL4 LOAD      ACCESS:          0  HIT:          0  MISS:          0  HIT %:       -nan  MISS %:       -nan   MPKI: 0
PSCL4 RFO       ACCESS:          0  HIT:          0  MISS:          0  HIT %:       -nan  MISS %:       -nan   MPKI: 0
PSCL4 PREFETCH  ACCESS:          0  HIT:          0  MISS:          0  HIT %:       -nan  MISS %:       -nan   MPKI: 0
PSCL4 WRITEBACK ACCESS:          0  HIT:          0  MISS:          0  HIT %:       -nan  MISS %:       -nan   MPKI: 0
PSCL3 TOTAL     ACCESS:   21848614  HIT:   21848454  MISS:        160  HIT %:    99.9993  MISS %: 0.000732312   MPKI: 0.000555143
PSCL3 LOAD      ACCESS:          0  HIT:          0  MISS:          0  HIT %:       -nan  MISS %:       -nan   MPKI: 0
PSCL3 RFO       ACCESS:          0  HIT:          0  MISS:          0  HIT %:       -nan  MISS %:       -nan   MPKI: 0
PSCL3 PREFETCH  ACCESS:          0  HIT:          0  MISS:          0  HIT %:       -nan  MISS %:       -nan   MPKI: 0
PSCL3 WRITEBACK ACCESS:          0  HIT:          0  MISS:          0  HIT %:       -nan  MISS %:       -nan   MPKI: 0
PSCL2 TOTAL     ACCESS:   21849243  HIT:   21815185  MISS:      34058  HIT %:    99.8441  MISS %:   0.155877   MPKI: 0.118169
PSCL2 LOAD      ACCESS:          0  HIT:          0  MISS:          0  HIT %:       -nan  MISS %:       -nan   MPKI: 0
PSCL2 RFO       ACCESS:          0  HIT:          0  MISS:          0  HIT %:       -nan  MISS %:       -nan   MPKI: 0
PSCL2 PREFETCH  ACCESS:          0  HIT:          0  MISS:          0  HIT %:       -nan  MISS %:       -nan   MPKI: 0
PSCL2 WRITEBACK ACCESS:          0  HIT:          0  MISS:          0  HIT %:       -nan  MISS %:       -nan   MPKI: 0
=== CPU 1 L1D Prefetcher Statistics ===
[MLOP] History of tracked zone:
IIIIIIIIIIIIIIIIIIIIIIIIIIIIIIIIIIIIIIIIIIIIIIIIIIIIIIIIIIIIIIII
IIIIIIIIIAIIIIIIIIIIIIIIIIIIIIIIIIIIIIIIIIIIIIIIIIIIIIIIIIIIIIII
I1I1IIIAIIIIIIIIIIIIIIIIIIIIIIIIIIIIIIIIIIIIIIIIIIIIIIIIIIIIIIII
IIIIIIIIIIIIIIIIIIIIIIIIIIIIIIIIIIIIIII1II1IIAIIIIIIIIIIIIIIIIII
I2IIAIIIIIIIIIIIIIIIIIIIIIIIIIIIIIIIIIIIIIIIIIIIIIIIIIIIIIIIIIII
IIIIIIIIIIIIIIIIIIIIIIIIIIIIIIIIIIIIIIIIIIAII2IIIIIIIIIIIIIIIIII
IIIIIIIIIIIIIIIIIIIIIIIIIIIIIIIIIIIIIIIIIIAAI22IIIIIIIIIIIIIIIII
IIIIIIIIIIIIIIIIIIIIIIIIIIAII2IIIIIIIIIIIIAAI22IIIIIIIIIIIIIIIII
IIIIIIIIIIIIIIIIIAII2IIIIIAII2IIIIIIIIIIIIAAI22IIIIIIIIIIIIIIIII
IIIIIIIIIIIIIIIIIAAI22IIIIAII2IIIIIIIIIIIIAAI22IIIIIIIIIIIIIIIII
IIIIIIIIIIIIIIIIIAAI22IIIIAII2IIIIIIIIIIIIAAI22IIIIIIIIAII2IIIII
IIIIIIIIIIIIIIIIIAAI22IIIIAII2IIIIIIIIIIIIAAI22AII2IIIIAII2IIIII
IIIIIIIIIIIIIIIIIAAI22IIIIAII2IIIIIIIIIIIIAAI22AAI22IIIAII2IIIII
IIIIIIIIIAII2IIIIAAI22IIIIAII2IIIIIIIIIIIIAAI22AAI22IIIAII2IIIII
IIIIIIIIIAII2IIIIAAI22AII2AII2IIIIIIIIIIIIAAI22AAI22IIIAII2IIIII
IIIIIIIIIAII2IIIIAAI22AAI2AII2IIIIIIIIIIIIAAI22AAI22IIIAII2IIIII
IIIIIIIIIAIIAII2IAAI22AAI2AII2IIIIIIIIIIIIAAI22AAI22IIIAII2IIIII
IIIIIIIIIAIIAAI22AAI22AAI2AII2IIIIIIIIIIIIAAI22AAI22IIIAII2IIIII
IIIIIIIIIAIIAAI22AAI22AAIAAI22IIIIIIIIIIIIAAI22AAI22IIIAII2IIIII
IIIIIIIIIAIIAAI22AAI22AAIAAI22IIIIIIIIIIAIAAI22AAI22IIIAII2IIIII
IIIIIIIIIAIIAAI22AAI22AAIAAI22IIIIIIIIIIAIAAI22AAI22AIIAII2IIIII
IIIIIIIIIAIIAAI22AAI22AAIAAI22IIIIIIIIIIAIAAI22AAI22AAIA2I2IIIII
IIIIIIIIIAIIAAI22AAI22AAIAAI22IIIIIIIIIIAIAAI2AAA222AAIA2I2IIIII
IIIIIIIIIAIIAAI22AAI22AAIAAI22IIIIIIIIIIAIAAI2AAA222AAAA222IIIII
IIIIIIIIIAIIAAI22AAI22AAIAAI22IIIIIIIIIIAIAAI2AAA222AAAA222AII2I
IIIIIIIIIAIIAAI22AAI22AAIAAI22IIIIIIIIIIAIAAI2AAA222AAAA222AIA2I
IIIIIIIIIAIIAAI22AAI22AAIAAI22IIIIAII2IIAIAAI2AAA222AAAA222AIA2I
IIIIIIIIIAIIAAI22AAI22AAIAAI22IIIIAII2IIAIAAA2AAA222AAAA222AIA2I
III2IIAIIAIIAAI22AAI22AAIAAI22IIIIAII2IIAIAAA2AAA222AAAA222AIA2I
III2IIAIIAIIAAI22AAI22AAIAAI2AII2IAII2IIAIAAA2AAA222AAAA222AIA2I
III2IIAIIAIIAAI22AAIA2AAIAAI2AII2IAII2IIAIAAA2AAA222AAAA222AIA2I
III2IIAI2AIAAA222AAIA2AAIAAI2AII2IAII2IIAIAAA2AAA222AAAA222AIA2I
III2IIAI2AIAAA222AAIAAAA2AAI2AII2IAII2IIAIAAA2AAA222AAAA222AIA2I
III2IIAI2AIAAA222AAIAAAA2AAI2AII2IAII2IIAIAAA2AAA2A2AAAA222AIA2I
III2IIAI2AIAAA222AAIAAAA2AAI2AIA2IAII2IIAIAAA2AAA2A2AAAA222AIA2I
III2IIAI2AIAAA222AAIAAAA2AA22AAA22AII2IIAIAAA2AAA2A2AAAA222AIA2I
III2IIAI2AIAAAA22AAIAAAA2AA22AAA22AII2IIAIAAA2AAA2A2AAAA222AIA2I
III2IIAI2AIAAAA22AAIAAAA2AA22AAA22AII2IIAIAAA2AAA2AAAAAA222AIA2I
III2IIAI2AIAAAA22AAIAAAA2AA22AAA22AII2IIAIAAA2AAA2AAAAAA2A2A2A2I
III2IIAI2AIAAAA22AAIAAAA2AA22AAA22AII2IIAIAAA2AAA2AAAAAA2AAA2A2I
III2IIAI2AIAAAA22AAIAAAA2AA22AAAA2A2I2IIAIAAA2AAA2AAAAAA2AAA2A2I
III2IIAI2AIAAAA22AAIAAAA2AA22AAAAAA222IIAIAAA2AAA2AAAAAA2AAA2A2I
III2IIAI2AIAAAA22AAIAAAA2AA22AAAAAA222IIAIAAAAAAA2AAAAAA2AAA2A2I
III2IIAI2AIAAAA22AAIAAAA2AA22AAAAAA22AIIAIAAAAAAA2AAAAAA2AAA2A2I
III2IIAI2AIAAAA22AAIAAAA2AA22AAAAAA22AAIA2AAAAAAA2AAAAAA2AAA2A2I
III22IAA2A2AAAA22AAIAAAA2AA22AAAAAA22AAIA2AAAAAAA2AAAAAA2AAA2A2I
III222AAAA2AAAA22AAIAAAA2AA22AAAAAA22AAIA2AAAAAAA2AAAAAA2AAA2A2I
III222AAAA2AAAA22AAIAAAA2AA22AAAAAA22AAIA2AAAAAAAAAAAAAA2AAA2A2I
III222AAAA2AAAA2AAA2AAAA2AA22AAAAAA22AAIA2AAAAAAAAAAAAAA2AAA2A2I
III222AAAA2AAAA2AAA2AAAA2AAA2AAAAAA22AAIA2AAAAAAAAAAAAAA2AAA2A2I
III222AAAA2AAAA2AAA2AAAA2AAAAAAAAAA22AAIA2AAAAAAAAAAAAAA2AAA2A2I
III222AAAA2AAAA2AAA2AAAA2AAAAAAAAAA22AAIA2AAAAAAAAAAAAAA2AAAAA22
III222AAAA2AAAA2AAA2AAAA2AAAAAAAAAA22AAIA2AAAAAAAAAAAAAA2AAAAAA2
III222AAAA2AAAA2AAA2AAAA2AAAAAAAAAA22AAIA2AAAAAAAAAAAAAA2AAAAAAA
III222AAAA2AAAAAAAA2AAAA2AAAAAAAAAA22AAIA2AAAAAAAAAAAAAA2AAAAAAA
III222AAAA2AAAAAAAA2AAAA2AAAAAAAAAA2AAA2A2AAAAAAAAAAAAAA2AAAAAAA
III222AAAA2AAAAAAAAAAAAA2AAAAAAAAAA2AAA2A2AAAAAAAAAAAAAA2AAAAAAA
III222AAAA2AAAAAAAAAAAAA2AAAAAAAAAA2AAA2AAAAAAAAAAAAAAAA2AAAAAAA
III222AAAA2AAAAAAAAAAAAAAAAAAAAAAAA2AAA2AAAAAAAAAAAAAAAA2AAAAAAA
III222AAAA2AAAAAAAAAAAAAAAAAAAAAAAA2AAAAAAAAAAAAAAAAAAAA2AAAAAAA
III222AAAAAAAAAAAAAAAAAAAAAAAAAAAAA2AAAAAAAAAAAAAAAAAAAA2AAAAAAA
III222AAAAAAAAAAAAAAAAAAAAAAAAAAAAAAAAAAAAAAAAAAAAAAAAAA2AAAAAAA
III222AAAAAAAAAAAAAAAAAAAAAAAAAAAAAAAAAAAAAAAAAAAAAAAAAAAAAAAAAA
IIIIIIIIIIIIIIIIIIIII2AIIIIIIIIIIIIIIIIIIIIIIIIIIIIIIIIIIIIIIIII
IIIIIIIIIIIIIIIIIIIII2AIIIIIIIIIIIIIIIIIIIIII1II1IIAIIIIIIIIIIII
IIIIIIIIIIIIIIIIIIIII2AIIIIIIIIIIIIIIIIIIIIII1IA1IIAIIIIIIIIIIII
IIIIIIIII1II1IIAIIIIIIIIIIIIIIIIIIIIIIIIIIIIIIIIIIIIIIIIIIIIIIII
IIIIIIIIIIIII1II1IIAIIIIIIIIIIIIIIIIIIIIIIIIIIIIIIIIIIIIIIIIIIII
I1IIAIIIIIIIIIIIIIIIIIIIIIIIIIIIIIIIIIIIIIIIIIIIIIIIIIIIIIIIIIII
I1IIAIIIIIIIIIIIIIIIIIIIIIIIIIIIIIIIIII1II1IIAIIIIIIIIIIIIIIIIII
I2IIAIIIIIIIIIIIIIIIIIIIIIIIIIIIIIIIIIIIIIIIIIIIIIIIIIIIIIIIIIII
I2IIAIIIIIIIIIIIIIIIIIIIIIIIIIIIIIIIIIIIIIAII2IIIIIIIIIIIIIIIIII
I2IIAIIIIIIIIIIIIIIIIIIIIIIIIIIIIIIIIIIIIIAAI22IIIIIIIIIIIIIIIII
I2IIAIIIIIIIIIIIIIIIIIIIIIAII2IIIIIIIIIIIIAAI22IIIIIIIIIIIIIIIII
I2IIAIIIIIIIIIIIIAII2IIIIIAII2IIIIIIIIIIIIAAI22IIIIIIIIIIIIIIIII
I2IIAIIIIIIIIIIIIAAI22IIIIAII2IIIIIIIIIIIIAAI22IIIIIIIIIIIIIIIII
I2IIAIIIIIIIIIIIIAAI22IIIIAII2IIIIIIIIIIIIAAI22IIIIIIIIAII2IIIII
I2IIAIIIIIIIIIIIIAAI22IIIIAII2IIIIIIIIIIIIAAI22AII2IIIIAII2IIIII
I2IIAIIIIIIIIIIIIAAI22IIIIAII2IIIIIIIIIIIIAAI22AAI22IIIAII2IIIII
I2IIAIIIIAII2IIIIAAI22IIIIAII2IIIIIIIIIIIIAAI22AAI22IIIAII2IIIII
I2IIAIIIIAII2IIIIAAI22AII2AII2IIIIIIIIIIIIAAI22AAI22IIIAII2IIIII
I2IIAIIIIAII2IIIIAAI22AAI2AII2IIIIIIIIIIIIAAI22AAI22IIIAII2IIIII
I2IIAIIIIAIIAII2IAAI22AAI2AII2IIIIIIIIIIIIAAI22AAI22IIIAII2IIIII
I2IIAIIIIAIIAAI22AAI22AAI2AII2IIIIIIIIIIIIAAI22AAI22IIIAII2IIIII
I2IIAIIIIAIIAAI22AAI22AAIAAI22IIIIIIIIIIIIAAI22AAI22IIIAII2IIIII
I2IIAIIIIAIIAAI22AAI22AAIAAI22IIIIIIIIIIAIAAI22AAI22IIIAII2IIIII
I2IIAIIIIAIIAAI22AAI22AAIAAI22IIIIIIIIIIAIAAI22AAI22AIIAII2IIIII
I2IIAIIIIAIIAAI22AAI22AAIAAI22IIIIIIIIIIAIAAI22AAI22AAIA2I2IIIII
I2IIAIIIIAIIAAI22AAI22AAIAAI22IIIIIIIIIIAIAAI2AAA222AAIA2I2IIIII
I2IIAIIIIAIIAAI22AAI22AAIAAI22IIIIIIIIIIAIAAI2AAA222AAAA222IIIII
I2IIAIIIIAIIAAI22AAI22AAIAAI22IIIIIIIIIIAIAAI2AAA222AAAA222AII2I
I2IIAIIIIAIIAAI22AAI22AAIAAI22IIIIIIIIIIAIAAI2AAA222AAAA222AIA2I
I2IIAIIIIAIIAAI22AAI22AAIAAI22IIIIAII2IIAIAAI2AAA222AAAA222AIA2I
I2IIAIIIIAIIAAI22AAI22AAIAAI22IIIIAII2IIAIAAA2AAA222AAAA222AIA2I
I2IIAIAIIAIIAAI22AAI22AAIAAI22IIIIAII2IIAIAAA2AAA222AAAA222AIA2I
I2IIAIAIIAIIAAI22AAI22AAIAAI2AII2IAII2IIAIAAA2AAA222AAAA222AIA2I
I2IIAIAIIAIIAAI22AAIA2AAIAAI2AII2IAII2IIAIAAA2AAA222AAAA222AIA2I
I2IIAIAI2AIAAA222AAIA2AAIAAI2AII2IAII2IIAIAAA2AAA222AAAA222AIA2I
I2IIAIAI2AIAAA222AAIAAAA2AA22AII2IAII2IIAIAAA2AAA222AAAA222AIA2I
I2IIAIAI2AIAAA222AAIAAAA2AA22AII2IAII2IIAIAAA2AAA2A2AAAA222AIA2I
I2IIAIAI2AIAAA222AAIAAAA2AA22AIA22AII2IIAIAAA2AAA2A2AAAA222AIA2I
I2IIAIAI2AIAAA222AAIAAAA2AA22AAA22AI22IIAIAAA2AAA2A2AAAA222AIA2I
I2IIAIAI2AIAAAA22AAIAAAA2AA22AAA22AI22IIAIAAA2AAA2A2AAAA222AIA2I
I2IIAIAI2AIAAAA22AAIAAAA2AA22AAA22AI22IIAIAAA2AAA2AAAAAA222AIA2I
I2IIAIAI2AIAAAA22AAIAAAA2AA22AAA22AI22IIAIAAA2AAA2AAAAAA2A2A2A22
I2IIAIAI2AIAAAA22AAIAAAA2AA22AAA22AI22IIAIAAA2AAA2AAAAAA2AAA2A22
I2IIAIAI2AIAAAA22AAIAAAA2AA22AAAA2A2222IAIAAA2AAA2AAAAAA2AAA2A22
I2IIAIAI2AIAAAA22AAIAAAA2AA22AAAAAA22222AIAAA2AAA2AAAAAA2AAA2A22
I2IIAIAI2AIAAAA22AAIAAAA2AA22AAAAAA22222AIAAAAAAA2AAAAAA2AAA2A22
I2IIAIAI2AIAAAA22AAIAAAA2AA22AAAAAA22A22AIAAAAAAA2AAAAAA2AAA2A22
I2IIAIAI2AIAAAA22AAIAAAA2AA22AAAAAA22AA2A2AAAAAAA2AAAAAA2AAA2A22
I2IIAIAA2A2AAAA22AAIAAAA2AA22AAAAAA22AA2A2AAAAAAA2AAAAAA2AAA2A22
I2IIA2AAAA2AAAA22AAIAAAA2AA22AAAAAA22AA2A2AAAAAAA2AAAAAA2AAA2A22
I2IIA2AAAA2AAAA22AAIAAAA2AA22AAAAAA22AA2A2AAAAAAAAAAAAAA2AAA2A22
I2IIA2AAAA2AAAA2AAA2AAAA2AA22AAAAAA22AA2A2AAAAAAAAAAAAAA2AAA2A22
I2IIA2AAAA2AAAA2AAA2AAAA2AAA2AAAAAA22AA2A2AAAAAAAAAAAAAA2AAA2A22
I2IIA2AAAA2AAAA2AAA2AAAA2AAAAAAAAAA22AA2A2AAAAAAAAAAAAAA2AAA2A22
I2IIA2AAAA2AAAA2AAA2AAAA2AAAAAAAAAA22AA2A2AAAAAAAAAAAAAA2AAAAA22
I2IIA2AAAA2AAAA2AAA2AAAA2AAAAAAAAAA22AA2A2AAAAAAAAAAAAAA2AAAAAA2
I2IIA2AAAA2AAAA2AAA2AAAA2AAAAAAAAAA22AA2A2AAAAAAAAAAAAAA2AAAAAAA
I2IIA2AAAA2AAAAAAAA2AAAA2AAAAAAAAAA22AA2A2AAAAAAAAAAAAAA2AAAAAAA
I2IIA2AAAA2AAAAAAAA2AAAA2AAAAAAAAAA2AAA2A2AAAAAAAAAAAAAA2AAAAAAA
I2IIA2AAAA2AAAAAAAAAAAAA2AAAAAAAAAA2AAA2A2AAAAAAAAAAAAAA2AAAAAAA
I2IIA2AAAA2AAAAAAAAAAAAA2AAAAAAAAAA2AAA2AAAAAAAAAAAAAAAA2AAAAAAA
I2IIA2AAAA2AAAAAAAAAAAAAAAAAAAAAAAA2AAA2AAAAAAAAAAAAAAAA2AAAAAAA
I2IIA2AAAA2AAAAAAAAAAAAAAAAAAAAAAAA2AAAAAAAAAAAAAAAAAAAA2AAAAAAA
I2IIA2AAAAAAAAAAAAAAAAAAAAAAAAAAAAA2AAAAAAAAAAAAAAAAAAAA2AAAAAAA
I2IIA2AAAAAAAAAAAAAAAAAAAAAAAAAAAAAAAAAAAAAAAAAAAAAAAAAA2AAAAAAA
I2IIA2AAAAAAAAAAAAAAAAAAAAAAAAAAAAAAAAAAAAAAAAAAAAAAAAAAAAAAAAAA
IIIIII22IAIIIIIIIIIIIIIIIIIIIIIIIIIIIIIIIIIIIIIIIIIIIIIIIIIIIIII
I1II1IIAIIIIIIIIIIIIIIIIIIIIIIIIIIIIIIIIIIIIIIIIIIIIIIIIIIIIIIII
IIIIIIIIIIIIIIIIIIIIIIIIIIIIIIIIIIIIII1III1IIAIIIIIIIIIIIIIIIIII
I1IIAIIIIIIIIIIIIIIIIIIIIIIIIIIIIIIIIIIIIIIIIIIIIIIIIIIIIIIIIIII
IIIIIIIIIIIIIIIIIIIIIIIIIIIIIIIIIIIIIIIIIIAII2IIIIIIIIIIIIIIIIII
IIIIIIIIIIIIIIIIIIIIIIIIIIAII2IIIIIIIIIIIIAII2IIIIIIIIIIIIIIIIII
IIIIIIIIIIIIIIIIIIIIIIIIIIAII2IIIIIIIIIIIIAAI22IIIIIIIIIIIIIIIII
IIIIIIIIIIIIIIIIIAII2IIIIIAII2IIIIIIIIIIIIAAI22IIIIIIIIIIIIIIIII
IIIIIIIIIIIIIIIIIAAI22IIIIAII2IIIIIIIIIIIIAAI22IIIIIIIIIIIIIIIII
IIIIIIIIIIIIIIIIIAAI22IIIIAII2IIIIIIIIIIIIAAI22IIIIIIIIAII2IIIII
IIIIIIIIIIIIIIIIIAAI22IIIIAII2IIIIIIIIIIIIAAI22AII2IIIIAII2IIIII
IIIIIIIIIIIIIIIIIAAI22IIIIAII2IIIIIIIIIIIIAAI22AAI22IIIAII2IIIII
IIIIIIIIIAII2IIIIAAI22IIIIAII2IIIIIIIIIIIIAAI22AAI22IIIAII2IIIII
IIIIIIIIIAII2IIIIAAI22AII2AII2IIIIIIIIIIIIAAI22AAI22IIIAII2IIIII
IIIIIIIIIAII2IIIIAAI22AAI2AII2IIIIIIIIIIIIAAI22AAI22IIIAII2IIIII
IIIIIIIIIAIIAII2IAAI22AAI2AII2IIIIIIIIIIIIAAI22AAI22IIIAII2IIIII
IIIIIIIIIAIIAII2IAAI22AAIAAI22IIIIIIIIIIIIAAI22AAI22IIIAII2IIIII
IIIIIIIIIAIIAAI22AAI22AAIAAI22IIIIIIIIIIIIAAI22AAI22IIIAII2IIIII
IIIIIIIIIAIIAAI22AAI22AAIAAI22IIIIIIIIIIAIAAI22AAI22IIIAII2IIIII
IIIIIIIIIAIIAAI22AAI22AAIAAI22IIIIIIIIIIAIAAI22AAI22AIIAII2IIIII
IIIIIIIIIAIIAAI22AAI22AAIAAI22IIIIIIIIIIAIAAI22AAI22AAIA2I2IIIII
IIIIIIIIIAIIAAI22AAI22AAIAAI22IIIIIIIIIIAIAAI2AAA222AAIA2I2IIIII
IIIIIIIIIAIIAAI22AAI22AAIAAI22IIIIIIIIIIAIAAI2AAA222AAAA222IIIII
IIIIIIIIIAIIAAI22AAI22AAIAAI22IIIIIIIIIIAIAAI2AAA222AAAA222AII2I
IIIIIIIIIAIIAAI22AAI22AAIAAI22IIIIIIIIIIAIAAI2AAA222AAAA222AIA2I
IIIIIIIIIAIIAAI22AAI22AAIAAI22IIIIAII2IIAIAAI2AAA222AAAA222AIA2I
IIIIIIIIIAIIAAI22AAI22AAIAAI22IIIIAII2IIAIAAA2AAA222AAAA222AIA2I
IIIIIIAIIAIIAAI22AAI22AAIAAI22IIIIAII2IIAIAAA2AAA222AAAA222AIA2I
IIIIIIAIIAIIAAI22AAI22AAIAAI2AII2IAII2IIAIAAA2AAA222AAAA222AIA2I
IIIIIIAIIAIIAAI22AAIA2AAIAAI2AII2IAII2IIAIAAA2AAA222AAAA222AIA2I
IIIIIIAIIAIAAA222AAIA2AAIAAI2AII2IAII2IIAIAAA2AAA222AAAA222AIA2I
IIIIIIAIIAIAAA222AAIAAAA2AAI2AII2IAII2IIAIAAA2AAA222AAAA222AIA2I
IIIIIIAIIAIAAA222AAIAAAA2AAI2AII2IAII2IIAIAAA2AAA2A2AAAA222AIA2I
IIIIIIAIIAIAAA222AAIAAAA2AAI2AIA2IAII2IIAIAAA2AAA2A2AAAA222AIA2I
IIIIIIAIIAIAAA222AAIAAAA2AAI2AAA22AII2IIAIAAA2AAA2A2AAAA222AIA2I
IIIIIIAIIAIAAAA22AAIAAAA2AAI2AAA22AII2IIAIAAA2AAA2A2AAAA222AIA2I
IIIIIIAIIAIAAAA22AAIAAAA2AAI2AAA22AII2IIAIAAA2AAA2AAAAAA222AIA2I
IIIIIIAIIAIAAAA22AAIAAAA2AAI2AAA22AII2IIAIAAA2AAA2AAAAAA2A2A2A2I
IIIIIIAIIAIAAAA22AAIAAAA2AAI2AAA22AII2IIAIAAA2AAA2AAAAAA2AAA2A2I
IIIIIIAIIAIAAAA22AAIAAAA2AAI2AAAA2A2I2IIAIAAA2AAA2AAAAAA2AAA2A2I
IIIIIIAIIAIAAAA22AAIAAAA2AAI2AAAAAA222IIAIAAA2AAA2AAAAAA2AAA2A2I
IIIIIIAIIAIAAAA22AAIAAAA2AAI2AAAAAA222IIAIAAAAAAA2AAAAAA2AAA2A2I
IIIIIIAIIAIAAAA22AAIAAAA2AAI2AAAAAA22AIIAIAAAAAAA2AAAAAA2AAA2A2I
IIIIIIAIIAIAAAA22AAIAAAA2AAI2AAAAAA22AAIA2AAAAAAA2AAAAAA2AAA2A2I
IIII2IAAIA2AAAA22AAIAAAA2AAI2AAAAAA22AAIA2AAAAAAA2AAAAAA2AAA2A2I
IIII22AAAA2AAAA22AAIAAAA2AAI2AAAAAA22AAIA2AAAAAAA2AAAAAA2AAA2A2I
IIII22AAAA2AAAA22AAIAAAA2AAI2AAAAAA22AAIA2AAAAAAAAAAAAAA2AAA2A2I
IIII22AAAA2AAAA2AAA2AAAA2AAI2AAAAAA22AAIA2AAAAAAAAAAAAAA2AAA2A2I
IIII22AAAA2AAAA2AAA2AAAA2AAA2AAAAAA22AAIA2AAAAAAAAAAAAAA2AAA2A2I
IIII22AAAA2AAAA2AAA2AAAA2AAAAAAAAAA22AAIA2AAAAAAAAAAAAAA2AAA2A2I
IIII22AAAA2AAAA2AAA2AAAA2AAAAAAAAAA22AAIA2AAAAAAAAAAAAAA2AAAAA22
IIII22AAAA2AAAA2AAA2AAAA2AAAAAAAAAA22AAIA2AAAAAAAAAAAAAA2AAAAAA2
IIII22AAAA2AAAA2AAA2AAAA2AAAAAAAAAA22AAIA2AAAAAAAAAAAAAA2AAAAAAA
IIII22AAAA2AAAAAAAA2AAAA2AAAAAAAAAA22AAIA2AAAAAAAAAAAAAA2AAAAAAA
IIII22AAAA2AAAAAAAA2AAAA2AAAAAAAAAA2AAA2A2AAAAAAAAAAAAAA2AAAAAAA
IIII22AAAA2AAAAAAAAAAAAA2AAAAAAAAAA2AAA2A2AAAAAAAAAAAAAA2AAAAAAA
IIII22AAAA2AAAAAAAAAAAAA2AAAAAAAAAA2AAA2AAAAAAAAAAAAAAAA2AAAAAAA
IIII22AAAA2AAAAAAAAAAAAAAAAAAAAAAAA2AAA2AAAAAAAAAAAAAAAA2AAAAAAA
IIII22AAAA2AAAAAAAAAAAAAAAAAAAAAAAA2AAAAAAAAAAAAAAAAAAAA2AAAAAAA
IIII22AAAAAAAAAAAAAAAAAAAAAAAAAAAAA2AAAAAAAAAAAAAAAAAAAA2AAAAAAA
IIII22AAAAAAAAAAAAAAAAAAAAAAAAAAAAAAAAAAAAAAAAAAAAAAAAAA2AAAAAAA
IIII22AAAAAAAAAAAAAAAAAAAAAAAAAAAAAAAAAAAAAAAAAAAAAAAAAAAAAAAAAA
IIIIIIIIIIIIIIII11I1IIAIIIIIIIIIIIIIIIIIIIIIIIIIIIIIIIIIIIIIIIII
IIIIIIIIIIIIIIII11I1IIAIIIIIIIIIIIIIIIIIIIIIIIIIIIIAIIIIIIIIIIII
IIIIIIIIIIIIIIII11I1IIAIIIIIIIIIIIIIIIIII1II1IIAIIIAIIIIIIIIIIII
IIIIIIIIIIIIIIIAIIIIIIIIIIIIIIIIIIIIIIIIIIIIIIIIIIIIIIIIIIIIIIII
IIIIIIIIIIIII1II1IIAIIIIIIIIIIIIIIIIIIIIIIIIIIIIIIIIIIIIIIIIIIII
I1IIAIIIIIIIIIIIIIIIIIIIIIIIIIIIIIIIIIIIIIIIIIIIIIIIIIIIIIIIIIII
I1IIAIIIIIIIIIIIIIIIIIIIIIIIIIIIIIIIIIIIIIIIIAIIIIIIIIIIIIIIIIII
IIIIAIIIIIIIIIIIIIIIIIIIIIIIIIIIIIIIIIIIIIIIIIIIIIIIIIIIIIIIIIII
IIIIAIIIIIIIIIIIIIIIIIIIIIIIIIIIIIIIIIIIIIAII2IIIIIIIIIIIIIIIIII
IIIIAIIIIIIIIIIIIIIIIIIIIIAII2IIIIIIIIIIIIAII2IIIIIIIIIIIIIIIIII
IIIIAIIIIIIIIIIIIIIIIIIIIIAII2IIIIIIIIIIIIAAI22IIIIIIIIIIIIIIIII
IIIIAIIIIIIIIIIIIAII2IIIIIAII2IIIIIIIIIIIIAAI22IIIIIIIIIIIIIIIII
IIIIAIIIIIIIIIIIIAAI22IIIIAII2IIIIIIIIIIIIAAI22IIIIIIIIIIIIIIIII
IIIIAIIIIIIIIIIIIAAI22IIIIAII2IIIIIIIIIIIIAAI22IIIIIIIIAII2IIIII
IIIIAIIIIIIIIIIIIAAI22IIIIAII2IIIIIIIIIIIIAAI22AII2IIIIAII2IIIII
IIIIAIIIIIIIIIIIIAAI22IIIIAII2IIIIIIIIIIIIAAI22AAI22IIIAII2IIIII
IIIIAIIIIAII2IIIIAAI22IIIIAII2IIIIIIIIIIIIAAI22AAI22IIIAII2IIIII
IIIIAIIIIAII2IIIIAAI22AII2AII2IIIIIIIIIIIIAAI22AAI22IIIAII2IIIII
IIIIAIIIIAII2IIIIAAI22AAI2AII2IIIIIIIIIIIIAAI22AAI22IIIAII2IIIII
IIIIAIIIIAIIAII2IAAI22AAI2AII2IIIIIIIIIIIIAAI22AAI22IIIAII2IIIII
IIIIAIIIIAIIAAI22AAI22AAI2AII2IIIIIIIIIIIIAAI22AAI22IIIAII2IIIII
IIIIAIIIIAIIAAI22AAI22AAIAAI22IIIIIIIIIIIIAAI22AAI22IIIAII2IIIII
IIIIAIIIIAIIAAI22AAI22AAIAAI22IIIIIIIIIIAIAAI22AAI22IIIAII2IIIII
IIIIAIIIIAIIAAI22AAI22AAIAAI22IIIIIIIIIIAIAAI22AAI22AIIAII2IIIII
IIIIAIIIIAIIAAI22AAI22AAIAAI22IIIIIIIIIIAIAAI22AAI22AAIA2I2IIIII
IIIIAIIIIAIIAAI22AAI22AAIAAI22IIIIIIIIIIAIAAI2AAA222AAIA2I2IIIII
IIIIAIIIIAIIAAI22AAI22AAIAAI22IIIIIIIIIIAIAAI2AAA222AAAA222IIIII
IIIIAIIIIAIIAAI22AAI22AAIAAI22IIIIIIIIIIAIAAI2AAA222AAAA222AII2I
IIIIAIIIIAIIAAI22AAI22AAIAAI22IIIIIIIIIIAIAAI2AAA222AAAA222AIA2I
IIIIAIIIIAIIAAI22AAI22AAIAAI22IIIIAII2IIAIAAI2AAA222AAAA222AIA2I
IIIIAIIIIAIIAAI22AAI22AAIAAI22IIIIAII2IIAIAAA2AAA222AAAA222AIA2I
IIIIAIAIIAIIAAI22AAI22AAIAAI22IIIIAII2IIAIAAA2AAA222AAAA222AIA2I
IIIIAIAIIAIIAAI22AAI22AAIAAI2AII2IAII2IIAIAAA2AAA222AAAA222AIA2I
IIIIAIAIIAIIAAI22AAIA2AAIAAI2AII2IAII2IIAIAAA2AAA222AAAA222AIA2I
IIIIAIAIIAIAAA222AAIA2AAIAAI2AII2IAII2IIAIAAA2AAA222AAAA222AIA2I
IIIIAIAIIAIAAA222AAIAAAA2AAI2AII2IAII2IIAIAAA2AAA222AAAA222AIA2I
IIIIAIAI2AIAAA222AAIAAAA2AAI2AII2IAII2IIAIAAA2AAA222AAAA222AIA2I
IIIIAIAI2AIAAA222AAIAAAA2AA22AII2IAII2IIAIAAA2AAA222AAAA222AIA2I
IIIIAIAI2AIAAA222AAIAAAA2AA22AII2IAII2IIAIAAA2AAA2A2AAAA222AIA2I
IIIIAIAI2AIAAA222AAIAAAA2AA22AIA22AII2IIAIAAA2AAA2A2AAAA222AIA2I
IIIIAIAI2AIAAA222AAIAAAA2AA22AAA22AI22IIAIAAA2AAA2A2AAAA222AIA2I
IIIIAIAI2AIAAAA22AAIAAAA2AA22AAA22AI22IIAIAAA2AAA2A2AAAA222AIA2I
IIIIAIAI2AIAAAA22AAIAAAA2AA22AAA22AI22IIAIAAA2AAA2AAAAAA222AIA2I
IIIIAIAI2AIAAAA22AAIAAAA2AA22AAA22AI22IIAIAAA2AAA2AAAAAA2A2A2A22
IIIIAIAI2AIAAAA22AAIAAAA2AA22AAA22AI22IIAIAAA2AAA2AAAAAA2AAA2A22
IIIIAIAI2AIAAAA22AAIAAAA2AA22AAAA2A2222IAIAAA2AAA2AAAAAA2AAA2A22
IIIIAIAI2AIAAAA22AAIAAAA2AA22AAAAAA22222AIAAA2AAA2AAAAAA2AAA2A22
IIIIAIAI2AIAAAA22AAIAAAA2AA22AAAAAA22222AIAAAAAAA2AAAAAA2AAA2A22
IIIIAIAI2AIAAAA22AAIAAAA2AA22AAAAAA22A22AIAAAAAAA2AAAAAA2AAA2A22
IIIIAIAI2AIAAAA22AAIAAAA2AA22AAAAAA22AA2A2AAAAAAA2AAAAAA2AAA2A22
IIIIAIAA2A2AAAA22AAIAAAA2AA22AAAAAA22AA2A2AAAAAAA2AAAAAA2AAA2A22
IIIIA2AAAA2AAAA22AAIAAAA2AA22AAAAAA22AA2A2AAAAAAA2AAAAAA2AAA2A22
IIIIA2AAAA2AAAA22AAIAAAA2AA22AAAAAA22AA2A2AAAAAAAAAAAAAA2AAA2A22
IIIIA2AAAA2AAAA2AAA2AAAA2AA22AAAAAA22AA2A2AAAAAAAAAAAAAA2AAA2A22
IIIIA2AAAA2AAAA2AAA2AAAA2AAA2AAAAAA22AA2A2AAAAAAAAAAAAAA2AAA2A22
IIIIA2AAAA2AAAA2AAA2AAAA2AAAAAAAAAA22AA2A2AAAAAAAAAAAAAA2AAA2A22
IIIIA2AAAA2AAAA2AAA2AAAA2AAAAAAAAAA22AA2A2AAAAAAAAAAAAAA2AAAAA22
IIIIA2AAAA2AAAA2AAA2AAAA2AAAAAAAAAA22AA2A2AAAAAAAAAAAAAA2AAAAAA2
IIIIA2AAAA2AAAA2AAA2AAAA2AAAAAAAAAA22AA2A2AAAAAAAAAAAAAA2AAAAAAA
IIIIA2AAAA2AAAAAAAA2AAAA2AAAAAAAAAA22AA2A2AAAAAAAAAAAAAA2AAAAAAA
IIIIA2AAAA2AAAAAAAA2AAAA2AAAAAAAAAA2AAA2A2AAAAAAAAAAAAAA2AAAAAAA
IIIIA2AAAA2AAAAAAAAAAAAA2AAAAAAAAAA2AAA2A2AAAAAAAAAAAAAA2AAAAAAA
IIIIA2AAAA2AAAAAAAAAAAAA2AAAAAAAAAA2AAA2AAAAAAAAAAAAAAAA2AAAAAAA
IIIIA2AAAA2AAAAAAAAAAAAAAAAAAAAAAAA2AAA2AAAAAAAAAAAAAAAA2AAAAAAA
IIIIA2AAAA2AAAAAAAAAAAAAAAAAAAAAAAA2AAAAAAAAAAAAAAAAAAAA2AAAAAAA
IIIIA2AAAAAAAAAAAAAAAAAAAAAAAAAAAAA2AAAAAAAAAAAAAAAAAAAA2AAAAAAA
IIIIA2AAAAAAAAAAAAAAAAAAAAAAAAAAAAAAAAAAAAAAAAAAAAAAAAAA2AAAAAAA
IIIIA2AAAAAAAAAAAAAAAAAAAAAAAAAAAAAAAAAAAAAAAAAAAAAAAAAAAAAAAAAA
IIIIIIIIIA2I2IIIIIIIIIIIIIIIIIIIIIIIIIIIIIIIIIIIIIIIIIIIIIIIIIII
I1I1IIIAIIIIIIIIIIIIIIIIIIIIIIIIIIIIIIIIIIIIIIIIIIIIIIIIIIIIIIII
IIIIIIIIIIIIIIIIIIIIIIIIIIIIIIIIIIIIIII1II1IIAIIIIIIIIIIIIIIIIII
I2IIAIIIIIIIIIIIIIIIIIIIIIIIIIIIIIIIIIIIIIIIIIIIIIIIIIIIIIIIIIII
IIIIIIIIIIIIIIIIIIIIIIIIIIIIIIIIIIIIIIIIIIAII2IIIIIIIIIIIIIIIIII
IIIIIIIIIIIIIIIIIIIIIIIIIIIIIIIIIIIIIIIIIIAAI22IIIIIIIIIIIIIIIII
IIIIIIIIIIIIIIIIIIIIIIIIIIAII2IIIIIIIIIIIIAAI22IIIIIIIIIIIIIIIII
IIIIIIIIIIIIIIIIIAII2IIIIIAII2IIIIIIIIIIIIAAI22IIIIIIIIIIIIIIIII
IIIIIIIIIIIIIIIIIAAI22IIIIAII2IIIIIIIIIIIIAAI22IIIIIIIIIIIIIIIII
IIIIIIIIIIIIIIIIIAAI22IIIIAII2IIIIIIIIIIIIAAI22IIIIIIIIAII2IIIII
IIIIIIIIIIIIIIIIIAAI22IIIIAII2IIIIIIIIIIIIAAI22AII2IIIIAII2IIIII
IIIIIIIIIIIIIIIIIAAI22IIIIAII2IIIIIIIIIIIIAAI22AAI22IIIAII2IIIII
IIIIIIIIIAII2IIIIAAI22IIIIAII2IIIIIIIIIIIIAAI22AAI22IIIAII2IIIII
IIIIIIIIIAII2IIIIAAI22AII2AII2IIIIIIIIIIIIAAI22AAI22IIIAII2IIIII
IIIIIIIIIAIIAII2IAAI22AII2AII2IIIIIIIIIIIIAAI22AAI22IIIAII2IIIII
IIIIIIIIIAIIAII2IAAI22AAI2AII2IIIIIIIIIIIIAAI22AAI22IIIAII2IIIII
IIIIIIIIIAIIAAI22AAI22AAI2AII2IIIIIIIIIIIIAAI22AAI22IIIAII2IIIII
IIIIIIIIIAIIAAI22AAI22AAIAAI22IIIIIIIIIIIIAAI22AAI22IIIAII2IIIII
IIIIIIIIIAIIAAI22AAI22AAIAAI22IIIIIIIIIIAIAAI22AAI22IIIAII2IIIII
IIIIIIIIIAIIAAI22AAI22AAIAAI22IIIIIIIIIIAIAAI22AAI22AIIAII2IIIII
IIIIIIIIIAIIAAI22AAI22AAIAAI22IIIIIIIIIIAIAAI2AAA222AIIAII2IIIII
IIIIIIIIIAIIAAI22AAI22AAIAAI22IIIIIIIIIIAIAAI2AAA222AAIA2I2IIIII
IIIIIIIIIAIIAAI22AAI22AAIAAI22IIIIIIIIIIAIAAI2AAA222AAAA222IIIII
IIIIIIIIIAIIAAI22AAI22AAIAAI22IIIIIIIIIIAIAAI2AAA222AAAA222AII2I
IIIIIIIIIAIIAAI22AAI22AAIAAI22IIIIIIIIIIAIAAI2AAA222AAAA222AIA2I
IIIIIIIIIAIIAAI22AAI22AAIAAI22IIIIAII2IIAIAAI2AAA222AAAA222AIA2I
IIIIIIIIIAIIAAI22AAI22AAIAAI22IIIIAII2IIAIAAA2AAA222AAAA222AIA2I
IIIIIIAIIAIIAAI22AAI22AAIAAI22IIIIAII2IIAIAAA2AAA222AAAA222AIA2I
IIIIIIAIIAIIAAI22AAI22AAIAAI2AII2IAII2IIAIAAA2AAA222AAAA222AIA2I
IIIIIIAIIAIIAAI22AAIA2AAIAAI2AII2IAII2IIAIAAA2AAA222AAAA222AIA2I
IIIIIIAIIAIAAA222AAIA2AAIAAI2AII2IAII2IIAIAAA2AAA222AAAA222AIA2I
IIIIIIAIIAIAAA222AAIAAAA2AAI2AII2IAII2IIAIAAA2AAA222AAAA222AIA2I
IIIIIIAIIAIAAA222AAIAAAA2AAI2AII2IAII2IIAIAAA2AAA2A2AAAA222AIA2I
IIIIIIAIIAIAAA222AAIAAAA2AAI2AIA2IAII2IIAIAAA2AAA2A2AAAA222AIA2I
IIIIIIAIIAIAAA222AAIAAAA2AAI2AAA22AII2IIAIAAA2AAA2A2AAAA222AIA2I
IIIIIIAIIAIAAAA22AAIAAAA2AAI2AAA22AII2IIAIAAA2AAA2A2AAAA222AIA2I
IIIIIIAIIAIAAAA22AAIAAAA2AAI2AAA22AII2IIAIAAA2AAA2AAAAAA222AIA2I
IIIIIIAIIAIAAAA22AAIAAAA2AAI2AAA22AII2IIAIAAA2AAA2AAAAAA2A2A2A2I
IIIIIIAIIAIAAAA22AAIAAAA2AAI2AAA22AII2IIAIAAA2AAA2AAAAAA2AAA2A2I
IIIIIIAIIAIAAAA22AAIAAAA2AAI2AAAA2A2I2IIAIAAA2AAA2AAAAAA2AAA2A2I
IIIIIIAIIAIAAAA22AAIAAAA2AAI2AAAAAA222IIAIAAA2AAA2AAAAAA2AAA2A2I
IIIIIIAIIAIAAAA22AAIAAAA2AAI2AAAAAA222IIAIAAAAAAA2AAAAAA2AAA2A2I
IIIIIIAIIAIAAAA22AAIAAAA2AAI2AAAAAA22AI2AIAAAAAAA2AAAAAA2AAA2A2I
IIIIIIAIIAIAAAA22AAIAAAA2AAI2AAAAAA22AA2A2AAAAAAA2AAAAAA2AAA2A2I
IIII2IAAIA2AAAA22AAIAAAA2AAI2AAAAAA22AA2A2AAAAAAA2AAAAAA2AAA2A2I
IIII22AAAA2AAAA22AAIAAAA2AAI2AAAAAA22AA2A2AAAAAAA2AAAAAA2AAA2A2I
IIII22AAAA2AAAA22AAIAAAA2AAI2AAAAAA22AA2A2AAAAAAAAAAAAAA2AAA2A2I
IIII22AAAA2AAAA2AAA2AAAA2AAI2AAAAAA22AA2A2AAAAAAAAAAAAAA2AAA2A2I
IIII22AAAA2AAAA2AAA2AAAA2AAA2AAAAAA22AA2A2AAAAAAAAAAAAAA2AAA2A2I
IIII22AAAA2AAAA2AAA2AAAA2AAA2AAAAAA22AA2A2AAAAAAAAAAAAAA2AAAAA22
IIII22AAAA2AAAA2AAA2AAAA2AAAAAAAAAA22AA2A2AAAAAAAAAAAAAA2AAAAA22
IIII22AAAA2AAAA2AAA2AAAA2AAAAAAAAAA22AA2A2AAAAAAAAAAAAAA2AAAAAA2
IIII22AAAA2AAAA2AAA2AAAA2AAAAAAAAAA22AA2A2AAAAAAAAAAAAAA2AAAAAAA
IIII22AAAA2AAAAAAAA2AAAA2AAAAAAAAAA22AA2A2AAAAAAAAAAAAAA2AAAAAAA
IIII22AAAA2AAAAAAAA2AAAA2AAAAAAAAAA2AAA2A2AAAAAAAAAAAAAA2AAAAAAA
IIII22AAAA2AAAAAAAAAAAAA2AAAAAAAAAA2AAA2A2AAAAAAAAAAAAAA2AAAAAAA
IIII22AAAA2AAAAAAAAAAAAA2AAAAAAAAAA2AAA2AAAAAAAAAAAAAAAA2AAAAAAA
IIII22AAAA2AAAAAAAAAAAAAAAAAAAAAAAA2AAA2AAAAAAAAAAAAAAAA2AAAAAAA
IIII22AAAA2AAAAAAAAAAAAAAAAAAAAAAAA2AAAAAAAAAAAAAAAAAAAA2AAAAAAA
IIII22AAAAAAAAAAAAAAAAAAAAAAAAAAAAA2AAAAAAAAAAAAAAAAAAAA2AAAAAAA
IIII22AAAAAAAAAAAAAAAAAAAAAAAAAAAAAAAAAAAAAAAAAAAAAAAAAA2AAAAAAA
IIII22AAAAAAAAAAAAAAAAAAAAAAAAAAAAAAAAAAAAAAAAAAAAAAAAAAAAAAAAAA
IIIIIIIIIIIIIIII1II1IIAIIIIIIIIIIIIIIIIIIIIIIIIIIIIIIIIIIIIIIIII
IIIIIIIIIIIIIIII1II1IIAIIIIIIIIIIIIIIIIIIIIIIIIIIIIAIIIIIIIIIIII
IIIIIIIIIIIIIIII1II1IIAIIIIIIIIIIIIIIIIII1II1IIAIIIAIIIIIIIIIIII
IIIIIIIIIIIIIIIAIIIIIIIIIIIIIIIIIIIIIIIIIIIIIIIIIIIIIIIIIIIIIIII
IIIIIIIIIIIII1II1IIAIIIIIIIIIIIIIIIIIIIIIIIIIIIIIIIIIIIIIIIIIIII
I1IIAIIIIIIIIIIIIIIIIIIIIIIIIIIIIIIIIIIIIIIIIIIIIIIIIIIIIIIIIIII
I1IIAIIIIIIIIIIIIIIIIIIIIIIIIIIIIIIIIIIIIIIIIAIIIIIIIIIIIIIIIIII
IIIIAIIIIIIIIIIIIIIIIIIIIIIIIIIIIIIIIIIIIIIIIIIIIIIIIIIIIIIIIIII
IIIIAIIIIIIIIIIIIIIIIIIIIIIIIIIIIIIIIIIIIIAII2IIIIIIIIIIIIIIIIII
IIIIAIIIIIIIIIIIIIIIIIIIIIAII2IIIIIIIIIIIIAII2IIIIIIIIIIIIIIIIII
IIIIAIIIIIIIIIIIIIIIIIIIIIAII2IIIIIIIIIIIIAAI22IIIIIIIIIIIIIIIII
IIIIAIIIIIIIIIIIIAII2IIIIIAII2IIIIIIIIIIIIAAI22IIIIIIIIIIIIIIIII
IIIIAIIIIIIIIIIIIAAI22IIIIAII2IIIIIIIIIIIIAAI22IIIIIIIIIIIIIIIII
IIIIAIIIIIIIIIIIIAAI22IIIIAII2IIIIIIIIIIIIAAI22IIIIIIIIAII2IIIII
IIIIAIIIIIIIIIIIIAAI22IIIIAII2IIIIIIIIIIIIAAI22AII2IIIIAII2IIIII
IIIIAIIIIIIIIIIIIAAI22IIIIAII2IIIIIIIIIIIIAAI22AAI22IIIAII2IIIII
IIIIAIIIIAII2IIIIAAI22IIIIAII2IIIIIIIIIIIIAAI22AAI22IIIAII2IIIII
IIIIAIIIIAII2IIIIAAI22AII2AII2IIIIIIIIIIIIAAI22AAI22IIIAII2IIIII
IIIIAIIIIAII2IIIIAAI22AAI2AII2IIIIIIIIIIIIAAI22AAI22IIIAII2IIIII
IIIIAIIIIAIIAII2IAAI22AAI2AII2IIIIIIIIIIIIAAI22AAI22IIIAII2IIIII
IIIIAIIIIAIIAAI22AAI22AAI2AII2IIIIIIIIIIIIAAI22AAI22IIIAII2IIIII
IIIIAIIIIAIIAAI22AAI22AAIAAI22IIIIIIIIIIIIAAI22AAI22IIIAII2IIIII
IIIIAIIIIAIIAAI22AAI22AAIAAI22IIIIIIIIIIAIAAI22AAI22IIIAII2IIIII
IIIIAIIIIAIIAAI22AAI22AAIAAI22IIIIIIIIIIAIAAI22AAI22AIIAII2IIIII
IIIIAIIIIAIIAAI22AAI22AAIAAI22IIIIIIIIIIAIAAI2AAA222AIIAII2IIIII
IIIIAIIIIAIIAAI22AAI22AAIAAI22IIIIIIIIIIAIAAI2AAA222AAIA2I2IIIII
IIIIAIIIIAIIAAI22AAI22AAIAAI22IIIIIIIIIIAIAAI2AAA222AAAA222IIIII
IIIIAIIIIAIIAAI22AAI22AAIAAI22IIIIIIIIIIAIAAI2AAA222AAAA222AII2I
IIIIAIIIIAIIAAI22AAI22AAIAAI22IIIIIIIIIIAIAAI2AAA222AAAA222AIA2I
IIIIAIIIIAIIAAI22AAI22AAIAAI22IIIIAII2IIAIAAI2AAA222AAAA222AIA2I
IIIIAIIIIAIIAAI22AAI22AAIAAI22IIIIAII2IIAIAAA2AAA222AAAA222AIA2I
IIIIAIAIIAIIAAI22AAI22AAIAAI22IIIIAII2IIAIAAA2AAA222AAAA222AIA2I
IIIIAIAIIAIIAAI22AAI22AAIAAI2AII2IAII2IIAIAAA2AAA222AAAA222AIA2I
IIIIAIAIIAIIAAI22AAIA2AAIAAI2AII2IAII2IIAIAAA2AAA222AAAA222AIA2I
[...]
IIIIIIIIIIIII1II1IIAIIIIIIIIIIIIII1II1IIAIIII1II1AIAIIIIIIIIIIII
IIIIIIIIIIIII1II1IIAIIIIIIIIIIIIII1II1IIAIIII1II1AIA1II1IIAIIIII
IIIIIIIIIIIII1II1IIAIIIIIIIIIIIIII1IA1IIAIIII1II1AIA1II1IIAIIIII
IIII1II1IIAII1II1IIAIIIIIIIIIIIIII1IA1IIAIIII1II1AIA1II1IIAIIIII
IIII1II1I1AI11IA1IIAIIIIIIIIIIIIII1IA1IIAIIII1II1AIA1II1IIAIIIII
IIII1II1I1AI11IA1IIAIIIIIIIIIIIII11IA1IAAIIII1II1AIA1II1IIAIIIII
IIII1II1I1AI11IA1IIAIIIIII1II1IIA11IA1IAAIIII1II1AIA1II1IIAIIIII
IIII1II1I1AI11IA1IIAIIIIII1II1IIA11IA1IAAIIII1II1AIA1II1IAAIII2I
IIII1II1I1AI11IA1IIAIIIIII1II1IIA11IA1IAAIIII1II1AIA1II1IAAIII22
IIII1II1I1AI11IA1IIAIIIIII1II1IIA11IA1IAAIIII1II1AIAAII1IAAIII22
IIII1II1I1AI11IA1IIAIIIIII1II1IIA11IA1IAAIIII1II1AIAAII11AA1IIA2
IIII1II1I1AI11IA1IIAIIIIII1II1IIA11IA1IAAII1I1AI1AIAAII11AA1IIA2
IIAI1II1I1AI11IA1IIAIIIIII1II1IIA11IA1IAAII1I1AI1AIAAII11AA1IIA2
IIAI1II1I1AI11IA1IIAIIIIII1II1IIA11IA1IAAII1I1AI1AAAAII11AA1IIA2
IIAI1II1IAAI11IA1IIAIIIIII1II1IIA11IA1IAAII1I1AI1AAAAII11AA1IIA2
IIIIIIIIIIIIIIIIIIIIIIIIIIIIIIIIIIIIIIIIII1II1IIAIIIIIIIIIIIIIII
IIIIIIIIIIIIIIIIIIIIIIIIIIIIIIIIIIIIIIIIII1II1IIAIIIIIIAIIIIIIII
IIIIIIIIIIIIIIIIIIIIIIIIIIIIIIIIIIIIIIIIII11I11IAAIIIIIAIIIIIIII
IIIIIIIIIIIIIIIIIIIIIIIIIIIIIIIIIIIIIIIIII11211IAAIIIIIAAIIIIIII
IIIIIIIIIIIIIIIIIIIIIIIIIIIIIIIIIII1II1II111A11IAAIIIIIAAIIIIIII
IIIIIIIIIIIIIIIIIIIIIIIIIIIIIII1II11I11IA111A11IAAIIIIIAAIIIIIII
IIIIIIIIIIIIIIIIIIIIIIIIIIIIIII11I11I11IAA11A11IAAIIIIIAAIIIIIII
IIIIIIIIIIIIIIIIII2IIIIIIIIIIIA11I11I11IAA11A11IAAIIIIIAAIIIIIII
IIAIIIIIIIIIIIIIII2IIIIIIIIIIIA11I11I11IAA11A11IAAIIIIIAAIIIIIII
IAAIIIIIIIIIIIIIII2IIIIIIIIIIIA11I11I11IAA11A11IAAIIIIIAAIIIIIII
IAAIIIIIIIIIIIIIII2IIIII2AIIIIA11I11I11IAA11A11IAAIIIIIAAIIIIIII
IAAIIIIIIIIIIIIIII2IIIII2AIIIIA11I11I11IAA11A11IAAIAIIIAAIIIIIII
IAAIIIIIIIIIIIIIII2IIIII2AIIIIA11I11I11IAA11A111AAAAIIIAAIIIIIII
1AA1IIAIIIIIIIIIII2IIIII2AIIIIA11I11I11IAA11A111AAAAIIIAAIIIIIII
IIIIIIIIIIIIIIIIIIIIIIIIIIIIIIIIIIIIIIIIIIIIIIIIAIIIIIIIIIIIIIII
AIIIIIIIIIIIIIIIIIIIIIIIIIIIIIIIIIIIIIIIIIIIIIIIAIIIIIIIIIIIIIII
IIIIIIIIIIIII1II1IIAIIIIIIIIIIIIIIIIIIIIIIIIIIIIIIIIIIIIIIIIIIII
IIIIII1II1IIA1II1IIAIIIIIIIIIIIIIIIIIIIIIIIIIIIIIIIIIIIIIIIIIIII
IIIIII12I1IIA1II1IIAIIIIIIIIIIIIIIIIIIIIIIIIIIIIIIIIIIIIIIIIIIII
III1I112IAIIA1II1IIAIIIIIIIIIIIIIIIIIIIIIIIIIIIIIIIIIIIIIIIIIIII
IIIIIIIIIIIIIIIIIIIIIIIIIIIIIIIIIIIIIII2IIIIIIIIIIIAIIIIIIIIIIII
IIIIIIIIIIIIIIIIIIIIIIIIIIIIIIII11II1IIAIIIIIIIIIIIAIIIIIIIIIIII
IIIIIIIIIIIII11II1IIAIIIIIIIIIII11II1IIAIIIIIIIIIIIAIIIIIIIIIIII
IIIIIIII2IIIAIIIIIIIIIIIIIIIIIIIIIIIIIIIIIIIIIIIIIIIIIIIIIIIIIII
IIII2IIIAIIIAIIIIIIIIIIIIIIIIIIIIIIIIIIIIIIIIIIIIIIIIIIIIIIIIIII
I2II2AIIAIIIAIIIIIIIIIIIIIIIIIIIIIIIIIIIIIIIIIIIIIIIIIIIIIIIIIII
I2II2AIIAIIIAIIIIIAIIIIIIIIIIIIIIIIIIIIIIIIIIIIIIIIIIIIIIIIIIIII
I2II2AIIAIIIAIIIIIAIIIIIIIIIAIIIIIIIIIIIIIIIIIIIIIIIIIIIIIIIIIII
I2II2AIIAIIIAIIIIIAIIAIIIIIIAIIIIIIIIIIIIIIIIIIIIIIIIIIIIIIIIIII
I2II2AIIAAIIAIIIIIAIIAIIIIIIAIIIIIIIIIIIIIIIIIIIIIIIIIIIIIIIIIII
I2II2AIIAAIIAIIIIIAIIAIIIIIIAIIIIIIIIIIIIIIIIIIIIIIAII2IIIIIIIII
IAII2AIIAAIIAIIIIIAIIAIIIIIIAIIIIIIIIIIIIIIIIIIIIIIAII2IIIIIIIII
IAII2AIIAAIIAIIIIIAIIAIIIIIIAIIIIIIIIIIIIIIIIIIIIIIAII2IIIIIIIIA
IAII2AIIAAIIAIIIIIAIIAIIIIIIAIIIIIIIIIIIIIIIIIIIIAIA2I2IIIIIIIIA
IAII2AI2AAI2AIIIIIAIIAIIIIIIAIIIIIIIIIIIIIIIIIIIIAIA2I2IIIIIIIIA
IAII2AI2AAI2AIIIIIAIIAII2AIIAIIIIIIIIIIIIIIIIIIIIAIA2I2IIIIIIIIA
IAII2AI2AAI2AIIIIIAIIAII2AIIAIIIIIIIIIIIIIIIIIIIIAIA2I2IIIIII2AA
IIIIIIIIIAIIIIIIIIIIIIIIIIIIIIIIIIIIIIIIIIIIIIIIIIIIIIIIIIIIIIII
IIIIIIIIIIIIIIIIIIIIIIIIIIIIA2IIIIIIIIIIIIIIIIIIIIIIIIIIIIIIIIII
IIIIIIIIIIIIIIIAIIIIIIIIIIIIA2IIIIIIIIIIIIIIIIIIIIIIIIIIIIIIIIII
IIIIIIIIIIIIIIIIIIIIIIIIIIIIIIIIIIIIIIIIIIIIAIIIIIIIIIIIIIIIIIII
IIIIIIIIIIII1II1IIAIIIIIIIIIIIIIIIIIIIIIIIIIIIIIIIIIIIIIIIIIIIII
IIIIIIIIIIII1II11IA1IIAIIIIIIIIIIIIIIIIIIIIIIIIIIIIIIIIIIIIIIIII
IIIIIIIIIIII1II11IA1IIAIIIIIIIIIIIIIIIIIIIIIII1I11IIAIIIIIIIIIII
IIIIIIIIIIII1II11IA1IIAIIII1I11IIAIIIIIIIIIIII1I11IIAIIIIIIIIIII
I11IIAIIIIII1II11IA1IIAIIII1I11IIAIIIIIIIIIIII1I11IIAIIIIIIIIIII
211IAAIIIIII1II11IA1IIAIIII1I11IIAIIIIIIIIIIII1I11IIAIIIIIIIIIII
211IAAIIIIII1II11IA1IIAII2I1IA1IIAIIIIIIIIIIII1I11IIAIIIIIIIIIII
211IAA1II1IIAII11IA1IIAII2I1IA1IIAIIIIIIIIIIII1I11IIAIIIIIIIIIII
211IAA1II1IIAII11IA1IIAIA2I1IA1IIAIIIIIIIIIIII1I11IIAIIIIIIIIIII
211IAA11I11IAAI11IA1IIAIA2I1IA1IIAIIIIIIIIIIII1I11IIAIIIIIIIIIII
211IAA11I11IAAI11IA1IIAIA2I1IA1IIAIIAIIIIIIIII1I11IIAIIIIIIIIIII
211IAA11I11IAA1111A1AIAIA2I1IA1IIAIIAIIIIIIIII1I11IIAIIIIIIIIIII
211IAA11111AAA1111A1AIAIA2I1IA1IIAIIAIIIIIIIII1I11IIAIIIIIIIIIII
211IAA11111AAA1111A1AIAIA2I1IAAIIAIIAIIIIIIIII1I11IIAIIIIIIIIIII
211IAA11111AAA1111A1AIAIA2I1IAAIIAIIAIIIIIIIII1I11I1AIAIIIIIIIII
211IAA11111AAAA111A1AIAIA2I1IAAIIAIIAIIIIIIIII1I11I1AIAIIIIIIIII
211IAA11111AAAA111A1AIAIA2I1IAAI1AI1AIAIIIIIII1I11I1AIAIIIIIIIII
211IAA11111AAAA111A1A1AIA2IAIAAI1AI1AIAIIIIIII1I11I1AIAIIIIIIIII
IIIIIIIIIIIIIIIIIIIIIIIIIIIIIIIIIIIIIIIIIIIIIIIIIII2IIIIIII2IIIA
IIIIIIIIII1II1IIAIIIIIIIIIIIIIIIIIIIIIIIIIIIIIIIIII2IIIIIII2IIIA
IIIIIIIIII1II11IA1IIAIIIIIIIIIIIIIIIIIIIIIIIIIIIIII2IIIIIII2IIIA
IIIIIIIIIIIIIIIIIIIIIIIIIIIIIIIIIIIIIIIIIIIIIIIIIIIIII1II1IIAIII
IIIIIIIIIIIIIIIIIIIIIIIIIIIIII1II1IIAIIIIIIIIIIIIIIIII1II1IIAIII
IIIIIIIIIIIIIIIIIIIIIIIIIIIIII1I11I1AIAIIIIIIIIIIIIIII1II1IIAIII
IIIIIIIIIIIIIIIIIIIIIIIIIIIIIIIIIIIIIIIIIIIII1II1IIAIIIIIIIIIIII
IIIIIIIIIIIIIIIIIIII1II1IIAIIIIIIIIIIIIIIIIII1II1IIAIIIIIIIIIIII
IIIIIIIIIIIIIIIIIIII1II1IIAIIIIIIIIIIIIIIIIII1II1IIAIIIIIIIIAIII
II1IIAIIIIIIIIIIIIII1II1IIAIIIIIIIIIIIIIIIIII1II1IIAIIIIIIIIAIII
II1IIAIII1II1IIAIIII1II1IIAIIIIIIIIIIIIIIIIII1II1IIAIIIIIIIIAIII
II1IIAIII1II1IIAIIII1II1IIAIIIIIIIIIIIIIIII1I11I1AIAIIIIIIIIAIII
II1IIAIII1II1IIAIIII1II1IIAIIIIIIIIIIIIIIII1I11I1AIAIIIIIIAIAIII
AI1IIAIII1II1IIAIIII1II1IIAIIIIIIIIIIIIIIII1I11I1AIAIIIIIIAIAIII
AI1IIAIII1II1IIAIIII1II1IIAIIIIIIIII2IIIIII1I11IAAIAIIIIIIAIAIII
1II1IIAIIIIIIIIIIIIIIIIIIIIIIIIIIIIIIIIIIIIIIIIIIIIIIIIIIIIIIIII
1II1IIAIIIIIIIIIIIIIIIIIIIIII1II1IIAIIIIIIIIIIIIIIIIIIIIIIIIIIII
IIIIIIIIIIIIIIIIIIIIIIIIIIIIIIIII1II1IIAIIIIIIIIIIIIIIIIIIIIIIII
AIIIIIIIIIIIIIIIIIIIIIIIIIIIIIIII1II1IIAIIIIIIIIIIIIIIIIIIIIIIII
IIIIIIIIIIIIIIIIIIIIIIIIIIIIIIIIIIIIIIIIIIIIIIIIIIIIII1II1IIAIII
IIIIIIIIIIIIIIIIIIIIIIIIIIIIIIII1II1IIAIIIIIIIIIIIIIII1II1IIAIII
IIIIIIIIIIIIIIIIIIIIIIIIIIIIIIII1II1IIAII1IIAIIIIIIIII1II1IIAIII
IIIIIAIIIIIIIIIIIIIIIIIIIIIIIIIIIIIIIIIIIIIIIIIIIIIIIIIIIIIIIIII
IIIIIAIIIIIIIIIIIIIIIIIIIIIIIIIIIIII1II1IIAIIIIIIIIIIIIIIIIIIIII
IIIIIAIIIIIIIIIIIIIIIIIIIIIIIIIIIIII1II1IIAIIIIIII1II1IIAIIIIIII
IIIIIAIIIIIIIIIIIIIIIIIIIIIIIIIIIIII1II1IIAIIIIIII1II1IIAIIIAIII
AIIIIAIIIIIIIIIIIIIIIIIIIIIIIIIIIIII1II1IIAIIIIIII1II1IIAIIIAIII
AIIIIAII1II1IIAIIIIIIIIIIIIIIIIIIIII1II1IIAIIIIIII1II1IIAIIIAIII
IIIIIIIIIIIIIIIIIIIIIIIIIIIIIIIIIII1IIIII1II1IIAIIIIIIIIIIIIIIII
IIIIIIIIIIIIIIIIIIIIIIIIIIIIIIIIIII1IIIII1II1IIAII1II1IIAIIIIIII
AIIIIIIIIIIIIIIIIIIIIIIIIIIIIIIIIII1IIIII1II1IIAII1II1IIAIIIIIII
IIIIIIIIIIIIIIIIIIIIIIIIIII2II1IIAIIIIIIIIIIIIIIIIIIIIIIIIIIIIII
IIIIIIIIIIIIIIIIIIIIIIIIIIIIIIIAII2IIIIIIIIIIIIIIIIIIIIIIIIIIIII
IIIIIIIIIIIIIIIIIIIIIIIIIAII2IIAII2IIIIIIIIIIIIIIIIIIIIIIIIIIIII
IIIIIIIIIIIIIIIIIIIIIIIIIAII2IIAII21II1IIAIIIIIIIIIIIIIIIIIIIIII
III2IIIIIIIIIIIAIIIIIIIIIAII2IIAII21II1IIAIIIIIIIIIIIIIIIIIIIIII
AII2IIIIIIIIIIIAIIIIIIIIIAII2IIAII21II1IIAIIIIIIIIIIIIIIIIIIIIII
AII2IIIIIIIIIIIAIIIIIIIIIAII2IIAII21I11IIAI1II1IIAIIIIIIIIIIIIII
II1IIAIIIIIIIIIIIIIIIIIIIIIIIIIIIIIIIIIIIIIIIIIIIIIIIIIIIIIIIIII
I2IIIIIIIIAIIIIIIIIIIIIIIIIIIIIIIIIIIIIIIIIIIIIIIIIIIIIIIIIIIIII
I2IIIIIIIIAIIIIIIIIIIIIIIIIIIIIIIIIIIIIIIIIIIII2IIAIIIIIIIIIIIII
I2IIIIIIIIAIIIIIIIIIIIIIIIIIIIIIIIIIIIIIIIIIIII2IIAI2IIAIIIIIIII
I2IIIIIIIIAIII2IIAIIIIIIIIIIIIIIIIIIIIIIIIIIIII2IIAI2IIAIIIIIIII
I2IIIIIIIIAIII2IIAIIIIII2IIIIIAIIIIIIIIIIIIIIII2IIAI2IIAIIIIIIII
IAIIIIIIIIAIII2IIAIIIIII2IIIIIAIIIIIIIIIIIIIIII2IIAI2IIAIIIIIIII
IAIIIIIIIIAI1I2IIA2II2IIAIIIIIAIIIIIIIIIIIIIIII2IIAI2IIAIIIIIIII
IAIIAIIIIIAI1I2IIA2II2IIAIIIIIAIIIIIIIIIIIIIIII2IIAI2IIAIIIIIIII
IAIIAIIIIIAI1I2IIA2II2IIA1IIIIA2II2IIAIIIIIIIII2IIAI2IIAIIIIIIII
IAIIAIIIIIAI1I2IIA2II2I2A1AIIIA2II2IIAIIIIIIIII2IIAI2IIAIIIIIIII
IAIIAIIIIIAI1I2IIA2II2I2A1AIIIA2II2IIAIIIIIIII22IAAI2IIAIIIIIIII
IAIIAIIIIIAI1I2IIA2II2I2A1AIIIA2IA2IIAIIIIIIII22IAAI2IIAIIIIIIII
IAIIAIIIIIAI1I2IIA2II2I2A1AIIIA2IA2IIAIIIIIIII222AA22I2AIAIIIIII
IIIIIIIIIIIIIIIIIIIIIIIIIIIIIIIIIIIIIIIIIIIIIIIIIIIIIIIII2IIAII2
II2IIA2IIIIIIIIIIIIIIIIIIIIIIIIIIIIIIIIIIIIIIIIIIIIIIIIII2IIAII2
II2IIA22IIA2IIIIIIIIIIIIIIIIIIIIIIIIIIIIIIIIIIIIIIIIIIIII2IIAII2
IIAIIA22IIA2IIIIIIIIIIIIIIIIIIIIIIIIIIIIIIIIIIIIIIIIIIIII2IIAII2
IIIIIIIIIIIII1II1IIAIIIIIIIIIIIIIIIIIIIIIIIIIIIIIIIIIIIIIIIIIIII
IIIIIIIIIIIII1II1IIAIIIIIIIIIIIIIIIIIIIIIIIII1II1IIAIIIIIIIIIIII
IIIIIIIIIIIII1II1IIAIIIIIIIIIIIIIIIIIIIIIIIII1II1AIAIIIIIIIIIIII
IIIIIIIIIIIII1II1IIAIIIIIIIIIIIIII1II1IIAIIII1II1AIAIIIIIIIIIIII
IIIIIIIIIIIII1II1IIAIIIIIIIIIIIIII1II1IIAIIII1II1AIA1II1IIAIIIII
IIIIIIIIIIIII1II1IIAIIIIIIIIIIIIII1IA1IIAIIII1II1AIA1II1IIAIIIII
IIII1II1IIAII1II1IIAIIIIIIIIIIIIII1IA1IIAIIII1II1AIA1II1IIAIIIII
IIII1II1I1AI11IA1IIAIIIIIIIIIIIIII1IA1IIAIIII1II1AIA1II1IIAIIIII
IIII1II1I1AI11IA1IIAIIIIIIIIIIIII11IA1IAAIIII1II1AIA1II1IIAIIIII
IIII1II1I1AI11IA1IIAIIIIII1II1IIA11IA1IAAIIII1II1AIA1II1IIAIIIII
IIII1II1I1AI11IA1IIAIIIIII1II1IIA11IA1IAAIIII1II1AIA1II1IAAIII2I
IIII1II1I1AI11IA1IIAIIIIII1II1IIA11IA1IAAIIII1II1AIA1II1IAAIII22
IIII1II1I1AI11IA1IIAIIIIII1II1IIA11IA1IAAIIII1II1AIAAII1IAAIII22
IIII1II1I1AI11IA1IIAIIIIII1II1IIA11IA1IAAIIII1II1AIAAII11AA1IIA2
IIII1II1I1AI11IA1IIAIIIIII1II1IIA11IA1IAAII1I1AI1AIAAII11AA1IIA2
IIAI1II1I1AI11IA1IIAIIIIII1II1IIA11IA1IAAII1I1AI1AIAAII11AA1IIA2
IIAI1II1I1AI11IA1IIAIIIIII1II1IIA11IA1IAAII1I1AI1AAAAII11AA1IIA2
IIAI1II1IAAI11IA1IIAIIIIII1II1IIA11IA1IAAII1I1AI1AAAAII11AA1IIA2
IIIIIIIIIIIIIIIIIIIIIIIIIIIIIIIIIIIIIIIIII1II1IIAIIIIIIIIIIIIIII
IIIIIIIIIIIIIIIIIIIIIIIIIIIIIIIIIIIIIIIIII1II1IIAIIIIIIAIIIIIIII
IIIIIIIIIIIIIIIIIIIIIIIIIIIIIIIIIIIIIIIIII11I11IAAIIIIIAIIIIIIII
IIIIIIIIIIIIIIIIIIIIIIIIIIIIIIIIIIIIIIIIII11211IAAIIIIIAAIIIIIII
IIIIIIIIIIIIIIIIIIIIIIIIIIIIIIIIIII1II1II111A11IAAIIIIIAAIIIIIII
IIIIIIIIIIIIIIIIIIIIIIIIIIIIIII1II11I11IA111A11IAAIIIIIAAIIIIIII
IIIIIIIIIIIIIIIIIIIIIIIIIIIIIII11I11I11IAA11A11IAAIIIIIAAIIIIIII
IIIIIIIIIIIIIIIIII2IIIIIIIIIIIA11I11I11IAA11A11IAAIIIIIAAIIIIIII
IIAIIIIIIIIIIIIIII2IIIIIIIIIIIA11I11I11IAA11A11IAAIIIIIAAIIIIIII
IAAIIIIIIIIIIIIIII2IIIIIIIIIIIA11I11I11IAA11A11IAAIIIIIAAIIIIIII
IAAIIIIIIIIIIIIIII2IIIII2AIIIIA11I11I11IAA11A11IAAIIIIIAAIIIIIII
IAAIIIIIIIIIIIIIII2IIIII2AIIIIA11I11I11IAA11A11IAAIAIIIAAIIIIIII
IAAIIIIIIIIIIIIIII2IIIII2AIIIIA11I11I11IAA11A111AAAAIIIAAIIIIIII
1AA1IIAIIIIIIIIIII2IIIII2AIIIIA11I11I11IAA11A111AAAAIIIAAIIIIIII
IIIIIIIIIIIIIIIIIIIIIIIIIIIIIIIIIIIIIIIIIIIIIIIIAIIIIIIIIIIIIIII
AIIIIIIIIIIIIIIIIIIIIIIIIIIIIIIIIIIIIIIIIIIIIIIIAIIIIIIIIIIIIIII
IIIIIIIIIIIII1II1IIAIIIIIIIIIIIIIIIIIIIIIIIIIIIIIIIIIIIIIIIIIIII
IIIIII1II1IIA1II1IIAIIIIIIIIIIIIIIIIIIIIIIIIIIIIIIIIIIIIIIIIIIII
IIIIII12I1IIA1II1IIAIIIIIIIIIIIIIIIIIIIIIIIIIIIIIIIIIIIIIIIIIIII
III1I112IAIIA1II1IIAIIIIIIIIIIIIIIIIIIIIIIIIIIIIIIIIIIIIIIIIIIII
IIIIIIIIIIIIIIIIIIIIIIIIIIIIIIIIIIIIIII2IIIIIIIIIIIAIIIIIIIIIIII
IIIIIIIIIIIIIIIIIIIIIIIIIIIIIIII11II1IIAIIIIIIIIIIIAIIIIIIIIIIII
IIIIIIIIIIIII11II1IIAIIIIIIIIIII11II1IIAIIIIIIIIIIIAIIIIIIIIIIII
IIIIIIII2IIIAIIIIIIIIIIIIIIIIIIIIIIIIIIIIIIIIIIIIIIIIIIIIIIIIIII
IIII2IIIAIIIAIIIIIIIIIIIIIIIIIIIIIIIIIIIIIIIIIIIIIIIIIIIIIIIIIII
I2II2AIIAIIIAIIIIIIIIIIIIIIIIIIIIIIIIIIIIIIIIIIIIIIIIIIIIIIIIIII
I2II2AIIAIIIAIIIIIAIIIIIIIIIIIIIIIIIIIIIIIIIIIIIIIIIIIIIIIIIIIII
I2II2AIIAIIIAIIIIIAIIIIIIIIIAIIIIIIIIIIIIIIIIIIIIIIIIIIIIIIIIIII
I2II2AIIAIIIAIIIIIAIIAIIIIIIAIIIIIIIIIIIIIIIIIIIIIIIIIIIIIIIIIII
I2II2AIIAAIIAIIIIIAIIAIIIIIIAIIIIIIIIIIIIIIIIIIIIIIIIIIIIIIIIIII
I2II2AIIAAIIAIIIIIAIIAIIIIIIAIIIIIIIIIIIIIIIIIIIIIIAII2IIIIIIIII
IAII2AIIAAIIAIIIIIAIIAIIIIIIAIIIIIIIIIIIIIIIIIIIIIIAII2IIIIIIIII
IAII2AIIAAIIAIIIIIAIIAIIIIIIAIIIIIIIIIIIIIIIIIIIIIIAII2IIIIIIIIA
IAII2AIIAAIIAIIIIIAIIAIIIIIIAIIIIIIIIIIIIIIIIIIIIAIA2I2IIIIIIIIA
IAII2AI2AAI2AIIIIIAIIAIIIIIIAIIIIIIIIIIIIIIIIIIIIAIA2I2IIIIIIIIA
IAII2AI2AAI2AIIIIIAIIAII2AIIAIIIIIIIIIIIIIIIIIIIIAIA2I2IIIIIIIIA
IAII2AI2AAI2AIIIIIAIIAII2AIIAIIIIIIIIIIIIIIIIIIIIAIA2I2IIIIII2AA
IIIIIIIIIAIIIIIIIIIIIIIIIIIIIIIIIIIIIIIIIIIIIIIIIIIIIIIIIIIIIIII
IIIIIIIIIIIIIIIIIIIIIIIIIIIIA2IIIIIIIIIIIIIIIIIIIIIIIIIIIIIIIIII
IIIIIIIIIIIIIIIAIIIIIIIIIIIIA2IIIIIIIIIIIIIIIIIIIIIIIIIIIIIIIIII
IIIIIIIIIIIIIIIA2IIIIIIIIIIIA2IIIIIIIIIIIIIIIIIIIIIIIIIIIIIIIIII
IIIIIIIIIIIIIIIIIIIIIIIIIIIIIIIIIIIIIIIIIIIIAIIIIIIIIIIIIIIIIIII
IIIIIIIIIIII1II1IIAIIIIIIIIIIIIIIIIIIIIIIIIIIIIIIIIIIIIIIIIIIIII
IIIIIIIIIIII1II11IA1IIAIIIIIIIIIIIIIIIIIIIIIIIIIIIIIIIIIIIIIIIII
IIIIIIIIIIII1II11IA1IIAIIIIIIIIIIIIIIIIIIIIIII1I11IIAIIIIIIIIIII
IIIIIIIIIIII1II11IA1IIAIIII1I11IIAIIIIIIIIIIII1I11IIAIIIIIIIIIII
I11IIAIIIIII1II11IA1IIAIIII1I11IIAIIIIIIIIIIII1I11IIAIIIIIIIIIII
211IAAIIIIII1II11IA1IIAIIII1I11IIAIIIIIIIIIIII1I11IIAIIIIIIIIIII
211IAAIIIIII1II11IA1IIA1II11IA1IIAIIIIIIIIIIII1I11IIAIIIIIIIIIII
211IAA1II1IIAII11IA1IIA1II11IA1IIAIIIIIIIIIIII1I11IIAIIIIIIIIIII
211IAA1II1IIAII112A1IIA1AI11IA1IIAIIIIIIIIIIII1I11IIAIIIIIIIIIII
211IAA11I11IAAI112A1IIA1AI11IA1IIAIIIIIIIIIIII1I11IIAIIIIIIIIIII
211IAA11I11IAAI112A1IIA1AI11IA1I1AIIAIIIIIIIII1I11IIAIIIIIIIIIII
211IAA11I11IAA1111A1AIA1AI11IA1I1AIIAIIIIIIIII1I11IIAIIIIIIIIIII
211IAA11211AAA1111A1AIA1AI11IA1I1AIIAIIIIIIIII1I11IIAIIIIIIIIIII
211IAA11211AAA1111A1AIA1AI11IAAI1AIIAIIIIIIIII1I11IIAIIIIIIIIIII
211IAA11211AAA1111A1AIA1AI11IAAI1AIIAIIIIIIIII1I11I1AIAIIIIIIIII
211IAA11111AAAA111A1AIA1AI11IAAI1AIIAIIIIIIIII1I11I1AIAIIIIIIIII
211IAA11111AAAA111A1AIA1AI11IAAI1AI1AIAIIIIIII1I11I1AIAIIIIIIIII
211IAA11111AAAA111A1A1A1AI1AIAAI1AI1AIAIIIIIII1I11I1AIAIIIIIIIII
IIIIIIIIIIIIIIIIIIIIIIIIIIIIIIIIIIIIIIIIIIIIIIIIIII2IIIIIIIIIIIA
IIIIIIIIII1II1IIAIIIIIIIIIIIIIIIIIIIIIIIIIIIIIIIIII2IIIIIIIIIIIA
IIIIIIIIII1II11IA1IIAIIIIIIIIIIIIIIIIIIIIIIIIIIIIII2IIIIIIIIIIIA
IIIIIIIIIIIIIIIIIIIIIIIIIIIIIIIIIIIIIIIIIIIIIIIIIIIIII1II1IIAIII
IIIIIIIIIIIIIIIIIIIIIIIIIIIIII1II1IIAIIIIIIIIIIIIIIIII1II1IIAIII
IIIIIIIIIIIIIIIIIIIIIIIIIIIIII1I11I1AIAIIIIIIIIIIIIIII1II1IIAIII
IIIIIIIIIIIIIIIIIIIIIIIIIIIIIIIIIIIIIIIIIIIII1II1IIAIIIIIIIIIIII
IIIIIIIIIIIIIIIIIIII1II1IIAIIIIIIIIIIIIIIIIII1II1IIAIIIIIIIIIIII
IIIIIIIIIIIIIIIIIIII1II1IIAIIIIIIIIIIIIIIIIII1II1IIAIIIIIIIIAIII
II1IIAIIIIIIIIIIIIII1II1IIAIIIIIIIIIIIIIIIIII1II1IIAIIIIIIIIAIII
II1IIAIII1II1IIAIIII1II1IIAIIIIIIIIIIIIIIIIII1II1IIAIIIIIIIIAIII
II1IIAIII1II1IIAIIII1II1IIAIIIIIIIIIIIIIIII1I11I1AIAIIIIIIIIAIII
II1IIAIII1II1IIAIIII1II1IIAIIIIIIIIIIIIIIII1I11I1AIAIIIIIIAIAIII
AI1IIAIII1II1IIAIIII1II1IIAIIIIIIIIIIIIIIII1I11I1AIAIIIIIIAIAIII
AI1IIAIII1II1IIAIIII1II1IIAIIIIIIIII2IIIIII1I11IAAIAIIIIIIAIAIII
1II1IIAIIIIIIIIIIIIIIIIIIIIIIIIIIIIIIIIIIIIIIIIIIIIIIIIIIIIIIIII
1II1IIAIIIIIIIIIIIIIIIIIIIIII1II1IIAIIIIIIIIIIIIIIIIIIIIIIIIIIII
IIIIIIIIIIIIIIIIIIIIIIIIIIIIIIIII1II1IIAIIIIIIIIIIIIIIIIIIIIIIII
AIIIIIIIIIIIIIIIIIIIIIIIIIIIIIIII1II1IIAIIIIIIIIIIIIIIIIIIIIIIII
IIIIIIIIIIIIIIIIIIIIIIIIIIIIIIIIIIIIIIIIIIIIIIIIIIIIII1II1IIAIII
IIIIIIIIIIIIIIIIIIIIIIIIIIIIIIII1II1IIAIIIIIIIIIIIIIII1II1IIAIII
IIIIIIIIIIIIIIIIIIIIIIIIIIIIIIII1II1IIAII1IIAIIIIIIIII1II1IIAIII
IIIIIAIIIIIIIIIIIIIIIIIIIIIIIIIIIIIIIIIIIIIIIIIIIIIIIIIIIIIIIIII
IIIIIAIIIIIIIIIIIIIIIIIIIIIIIIIIIIII1II1IIAIIIIIIIIIIIIIIIIIIIII
IIIIIAIIIIIIIIIIIIIIIIIIIIIIIIIIIIII1II1IIAIIIIIII1II1IIAIIIIIII
IIIIIAIIIIIIIIIIIIIIIIIIIIIIIIIIIIII1II1IIAIIIIIII1II1IIAIIIAIII
AIIIIAIIIIIIIIIIIIIIIIIIIIIIIIIIIIII1II1IIAIIIIIII1II1IIAIIIAIII
AIIIIAII1II1IIAIIIIIIIIIIIIIIIIIIIII1II1IIAIIIIIII1II1IIAIIIAIII
IIIIIIIIIIIIIIIIIIIIIIIIIIIIIIIIIII1IIIII1II1IIAIIIIIIIIIIIIIIII
IIIIIIIIIIIIIIIIIIIIIIIIIIIIIIIIIII1IIIII1II1IIAII1II1IIAIIIIIII
AIIIIIIIIIIIIIIIIIIIIIIIIIIIIIIIIII1IIIII1II1IIAII1II1IIAIIIIIII
IIIIIIIIIIIIIIIIIIIIIIIIIII2II1IIAIIIIIIIIIIIIIIIIIIIIIIIIIIIIII
IIIIIIIIIIIIIIIIIIIIIIIIIIIIIIIAII2IIIIIIIIIIIIIIIIIIIIIIIIIIIII
IIIIIIIIIIIIIIIIIIIIIIIIIAII2IIAII2IIIIIIIIIIIIIIIIIIIIIIIIIIIII
IIIIIIIIIIIIIIIIIIIIIIIIIAII2IIAII21II1IIAIIIIIIIIIIIIIIIIIIIIII
III2IIIIIIIIIIIAIIIIIIIIIAII2IIAII21II1IIAIIIIIIIIIIIIIIIIIIIIII
AII2IIIIIIIIIIIAIIIIIIIIIAII2IIAII21II1IIAIIIIIIIIIIIIIIIIIIIIII
AII2IIIIIIIIIIIAIIIIIIIIIAII2IIAII21I11IIAI1II1IIAIIIIIIIIIIIIII
II1IIAIIIIIIIIIIIIIIIIIIIIIIIIIIIIIIIIIIIIIIIIIIIIIIIIIIIIIIIIII
I2IIIIIIIIAIIIIIIIIIIIIIIIIIIIIIIIIIIIIIIIIIIIIIIIIIIIIIIIIIIIII
I2IIIIIIIIAIIIIIIIIIIIIIIIIIIIIIIIIIIIIIIIIIIII2IIAIIIIIIIIIIIII
I2IIIIIIIIAIIIIIIIIIIIIIIIIIIIIIIIIIIIIIIIIIIII2IIAI2IIAIIIIIIII
I2IIIIIIIIAIII2IIAIIIIIIIIIIIIIIIIIIIIIIIIIIIII2IIAI2IIAIIIIIIII
I2IIIIIIIIAIII2IIAIIIIII2IIIIIAIIIIIIIIIIIIIIII2IIAI2IIAIIIIIIII
IAIIIIIIIIAIII2IIAIIIIII2IIIIIAIIIIIIIIIIIIIIII2IIAI2IIAIIIIIIII
IAIIIIIIIIAI1I2IIA2II2IIAIIIIIAIIIIIIIIIIIIIIII2IIAI2IIAIIIIIIII
IAIIAIIIIIAI1I2IIA2II2IIAIIIIIAIIIIIIIIIIIIIIII2IIAI2IIAIIIIIIII
IAIIAIIIIIAI1I2IIA2II2IIA1IIIIA2II2IIAIIIIIIIII2IIAI2IIAIIIIIIII
IAIIAIIIIIAI1I2IIA2II2I2A1AIIIA2II2IIAIIIIIIIII2IIAI2IIAIIIIIIII
IAIIAIIIIIAI1I2IIA2II2I2A1AIIIA2II2IIAIIIIIIII22IAAI2IIAIIIIIIII
IAIIAIIIIIAI1I2IIA2II2I2A1AIIIA2IA2IIAIIIIIIII22IAAI2IIAIIIIIIII
IAIIAIIIIIAI1I2IIA2II2I2A1AIIIA2IA2IIAIIIIIIII222AA22I2AIAIIIIII
IIIIIIIIIIIIIIIIIIIIIIIIIIIIIIIIIIIIIIIIIIIIIIIIIIIIIIIII2IIAII2
II2IIA2IIIIIIIIIIIIIIIIIIIIIIIIIIIIIIIIIIIIIIIIIIIIIIIIII2IIAII2
II2IIA22IIA2IIIIIIIIIIIIIIIIIIIIIIIIIIIIIIIIIIIIIIIIIIIII2IIAII2
IIAIIA22IIA2IIIIIIIIIIIIIIIIIIIIIIIIIIIIIIIIIIIIIIIIIIIII2IIAII2
IIIIIIIIIIIIIIIIIIIAIIIIIIIIIIIIIIIIIIIIIIIIIIIIIIIIIIIIIIIIIIII
IIIIIIIIIIIIIIIIIIIAIIIIIIIIIIIIIIIIIIIIIIIII1II1IIAIIIIIIIIIIII
IIIIIIIIIIIIIIIIIIIAIIIIIIIIIIIIIIIIIIIIIII1I11I1AIAIIIIIIIIIIII
IIIIIIIIIIIIIIIIIIIAIIIIIIIIIIIIII1II1IIAII1I11I1AIAIIIIIIIIIIII
IIIIIIIIIIIIIIIIIIIAIIIIIIIIIIIIII1II1IIAII1I11I1AIA1II1IIAIIIII
[MLOP] Prefetch Degree Mean: 2.32402
[MLOP] Prefetch Degree SD: 2.2632
[MLOP] Max Score Left Mean (%): 28.0246
[MLOP] Max Score Left SD (%): 15.5181
[MLOP] Max Score Right Mean (%): 45.4847
[MLOP] Max Score Right SD (%): 15.4342

DRAM Statistics
 CHANNEL 0
 RQ ROW_BUFFER_HIT:     178361  ROW_BUFFER_MISS:    3129159
 DBUS_CONGESTED:        603
 WQ ROW_BUFFER_HIT:     325583  ROW_BUFFER_MISS:     893672  FULL:          0

 AVG_CONGESTED_CYCLE: 5
 All warmup complete: 5
Channel 0 Bank busy for read cycles: 0
Channel 0 Bank busy for write cycles: 0
Channel 0
Rank 0
0banks busy for read cycles: 98922077
0banks busy for write cycles: 181520
1banks busy for read cycles: 87277724
1banks busy for write cycles: 22625130
2banks busy for read cycles: 63641509
2banks busy for write cycles: 12633555
3banks busy for read cycles: 36266231
3banks busy for write cycles: 8039254
4banks busy for read cycles: 18626714
4banks busy for write cycles: 5468819
5banks busy for read cycles: 8529997
5banks busy for write cycles: 4031679
6banks busy for read cycles: 3788347
6banks busy for write cycles: 4065849
7banks busy for read cycles: 1559347
7banks busy for write cycles: 8205760
8banks busy for read cycles: 744073
8banks busy for write cycles: 16171289

CPU 0 Branch Prediction Accuracy: 99.7013% MPKI: 0.619268 Average ROB Occupancy at Mispredict: 114.482
Branch types
NOT_BRANCH: 0 0%
BRANCH_DIRECT_JUMP: 0 0%
BRANCH_INDIRECT: 0 0%
BRANCH_CONDITIONAL: 0 0%
BRANCH_DIRECT_CALL: 0 0%
BRANCH_INDIRECT_CALL: 0 0%
BRANCH_RETURN: 0 0%
BRANCH_OTHER: 0 0%


CPU 1 Branch Prediction Accuracy: 99.913% MPKI: 0.186956 Average ROB Occupancy at Mispredict: 122.62
Branch types
NOT_BRANCH: 0 0%
BRANCH_DIRECT_JUMP: 0 0%
BRANCH_INDIRECT: 0 0%
BRANCH_CONDITIONAL: 0 0%
BRANCH_DIRECT_CALL: 0 0%
BRANCH_INDIRECT_CALL: 0 0%
BRANCH_RETURN: 0 0%
BRANCH_OTHER: 0 0%


CPU 2 Branch Prediction Accuracy: 99.5233% MPKI: 0.980285 Average ROB Occupancy at Mispredict: 148.309
Branch types
NOT_BRANCH: 0 0%
BRANCH_DIRECT_JUMP: 0 0%
BRANCH_INDIRECT: 0 0%
BRANCH_CONDITIONAL: 0 0%
BRANCH_DIRECT_CALL: 0 0%
BRANCH_INDIRECT_CALL: 0 0%
BRANCH_RETURN: 0 0%
BRANCH_OTHER: 0 0%


CPU 3 Branch Prediction Accuracy: 99.7594% MPKI: 0.522977 Average ROB Occupancy at Mispredict: 124.835
Branch types
NOT_BRANCH: 0 0%
BRANCH_DIRECT_JUMP: 0 0%
BRANCH_INDIRECT: 0 0%
BRANCH_CONDITIONAL: 0 0%
BRANCH_DIRECT_CALL: 0 0%
BRANCH_INDIRECT_CALL: 0 0%
BRANCH_RETURN: 0 0%
BRANCH_OTHER: 0 0%

DRAM PAGES: 1048576
Allocated PAGES: 84331
