
*** ChampSim Multicore Out-of-Order Simulator ***

Warmup Instructions: 50000000
Simulation Instructions: 200000000
Number of CPUs: 4
LLC sets: 8192
LLC ways: 16
Off-chip DRAM Size: 4096 MB Channels: 1 Width: 64-bit Data Rate: 6400 MT/s
CPU 0 runs ./traces/spec/602.gcc_s-1850B.champsimtrace.xz
.xz
CPU 1 runs ./traces/spec/602.gcc_s-1850B.champsimtrace.xz
.xz
CPU 2 runs ./traces/spec/602.gcc_s-1850B.champsimtrace.xz
.xz
CPU 3 runs ./traces/spec/602.gcc_s-1850B.champsimtrace.xz
.xz
BTB has LRU replacement policy
ITLB has LRU replacement policy
DTLB has LRU replacement policy
STLB has LRU replacement policy
L1I has LRU replacement policy
L1D has LRU replacement policy
Initialize SRRIP state for L2C
Initialize DRRIP state for LLC
BTB has LRU replacement policy
ITLB has LRU replacement policy
DTLB has LRU replacement policy
STLB has LRU replacement policy
L1I has LRU replacement policy
L1D has LRU replacement policy
Initialize SRRIP state for L2C
Initialize DRRIP state for LLC
BTB has LRU replacement policy
ITLB has LRU replacement policy
DTLB has LRU replacement policy
STLB has LRU replacement policy
L1I has LRU replacement policy
L1D has LRU replacement policy
Initialize SRRIP state for L2C
Initialize DRRIP state for LLC
BTB has LRU replacement policy
ITLB has LRU replacement policy
DTLB has LRU replacement policy
STLB has LRU replacement policy
L1I has LRU replacement policy
L1D has LRU replacement policy
Initialize SRRIP state for L2C
Initialize DRRIP state for LLC
Heartbeat CPU 0 instructions: 10000002 cycles: 3262917 heartbeat IPC: 3.06474 cumulative IPC: 3.06474 (Simulation time: 0 hr 3 min 2 sec) 
Heartbeat CPU 1 instructions: 10000002 cycles: 3263022 heartbeat IPC: 3.06464 cumulative IPC: 3.06464 (Simulation time: 0 hr 3 min 2 sec) 
Heartbeat CPU 2 instructions: 10000002 cycles: 3263056 heartbeat IPC: 3.06461 cumulative IPC: 3.06461 (Simulation time: 0 hr 3 min 2 sec) 
Heartbeat CPU 3 instructions: 10000002 cycles: 3263370 heartbeat IPC: 3.06432 cumulative IPC: 3.06432 (Simulation time: 0 hr 3 min 2 sec) 
Heartbeat CPU 1 instructions: 20000000 cycles: 6525474 heartbeat IPC: 3.06518 cumulative IPC: 3.06491 (Simulation time: 0 hr 6 min 11 sec) 
Heartbeat CPU 0 instructions: 20000000 cycles: 6525565 heartbeat IPC: 3.06499 cumulative IPC: 3.06487 (Simulation time: 0 hr 6 min 11 sec) 
Heartbeat CPU 2 instructions: 20000000 cycles: 6525600 heartbeat IPC: 3.06509 cumulative IPC: 3.06485 (Simulation time: 0 hr 6 min 11 sec) 
Heartbeat CPU 3 instructions: 20000000 cycles: 6525807 heartbeat IPC: 3.06519 cumulative IPC: 3.06475 (Simulation time: 0 hr 6 min 11 sec) 
Heartbeat CPU 1 instructions: 30000000 cycles: 9786668 heartbeat IPC: 3.06636 cumulative IPC: 3.06539 (Simulation time: 0 hr 9 min 11 sec) 
Heartbeat CPU 0 instructions: 30000000 cycles: 9786858 heartbeat IPC: 3.06627 cumulative IPC: 3.06534 (Simulation time: 0 hr 9 min 11 sec) 
Heartbeat CPU 2 instructions: 30000000 cycles: 9787143 heartbeat IPC: 3.06603 cumulative IPC: 3.06525 (Simulation time: 0 hr 9 min 11 sec) 
Heartbeat CPU 3 instructions: 30000000 cycles: 9787153 heartbeat IPC: 3.06622 cumulative IPC: 3.06524 (Simulation time: 0 hr 9 min 11 sec) 
Heartbeat CPU 0 instructions: 40000000 cycles: 13049690 heartbeat IPC: 3.06482 cumulative IPC: 3.06521 (Simulation time: 0 hr 12 min 20 sec) 
Heartbeat CPU 1 instructions: 40000000 cycles: 13049721 heartbeat IPC: 3.06461 cumulative IPC: 3.0652 (Simulation time: 0 hr 12 min 20 sec) 
Heartbeat CPU 2 instructions: 40000000 cycles: 13049766 heartbeat IPC: 3.06502 cumulative IPC: 3.06519 (Simulation time: 0 hr 12 min 20 sec) 
Heartbeat CPU 3 instructions: 40000000 cycles: 13049849 heartbeat IPC: 3.06495 cumulative IPC: 3.06517 (Simulation time: 0 hr 12 min 20 sec) 
Heartbeat CPU 0 instructions: 50000000 cycles: 16312131 heartbeat IPC: 3.06519 cumulative IPC: 3.0652 (Simulation time: 0 hr 15 min 16 sec) 
Heartbeat CPU 1 instructions: 50000000 cycles: 16312356 heartbeat IPC: 3.06501 cumulative IPC: 3.06516 (Simulation time: 0 hr 15 min 16 sec) 
Heartbeat CPU 2 instructions: 50000000 cycles: 16312454 heartbeat IPC: 3.06496 cumulative IPC: 3.06514 (Simulation time: 0 hr 15 min 16 sec) 
Heartbeat CPU 3 instructions: 50000000 cycles: 16312499 heartbeat IPC: 3.06499 cumulative IPC: 3.06513 (Simulation time: 0 hr 15 min 16 sec) 

Warmup complete CPU 0 instructions: 50001048 cycles: 16312500 (Simulation time: 0 hr 15 min 16 sec) 
Warmup complete CPU 1 instructions: 50000415 cycles: 16312500 (Simulation time: 0 hr 15 min 16 sec) 
Warmup complete CPU 2 instructions: 50000156 cycles: 16312500 (Simulation time: 0 hr 15 min 16 sec) 
Warmup complete CPU 3 instructions: 50000004 cycles: 16312500 (Simulation time: 0 hr 15 min 16 sec) 

Heartbeat CPU 3 instructions: 60000003 cycles: 35716852 heartbeat IPC: 0.515348 cumulative IPC: 0.515348 (Simulation time: 0 hr 20 min 30 sec) 
Heartbeat CPU 2 instructions: 60000003 cycles: 35716954 heartbeat IPC: 0.515345 cumulative IPC: 0.515338 (Simulation time: 0 hr 20 min 30 sec) 
Heartbeat CPU 0 instructions: 60000003 cycles: 35794157 heartbeat IPC: 0.513294 cumulative IPC: 0.51325 (Simulation time: 0 hr 20 min 31 sec) 
Heartbeat CPU 1 instructions: 60000003 cycles: 35811717 heartbeat IPC: 0.512837 cumulative IPC: 0.51282 (Simulation time: 0 hr 20 min 31 sec) 
Heartbeat CPU 2 instructions: 70000002 cycles: 55107077 heartbeat IPC: 0.515726 cumulative IPC: 0.515532 (Simulation time: 0 hr 26 min 5 sec) 
Heartbeat CPU 3 instructions: 70000002 cycles: 55124756 heartbeat IPC: 0.515254 cumulative IPC: 0.515301 (Simulation time: 0 hr 26 min 5 sec) 
Heartbeat CPU 0 instructions: 70000002 cycles: 55189518 heartbeat IPC: 0.515587 cumulative IPC: 0.514416 (Simulation time: 0 hr 26 min 6 sec) 
Heartbeat CPU 1 instructions: 70000002 cycles: 55254426 heartbeat IPC: 0.514332 cumulative IPC: 0.513575 (Simulation time: 0 hr 26 min 7 sec) 
Heartbeat CPU 2 instructions: 80000003 cycles: 74543072 heartbeat IPC: 0.514509 cumulative IPC: 0.515191 (Simulation time: 0 hr 31 min 35 sec) 
Heartbeat CPU 3 instructions: 80000003 cycles: 74557241 heartbeat IPC: 0.514602 cumulative IPC: 0.515068 (Simulation time: 0 hr 31 min 35 sec) 
Heartbeat CPU 0 instructions: 80000003 cycles: 74594797 heartbeat IPC: 0.515324 cumulative IPC: 0.514718 (Simulation time: 0 hr 31 min 35 sec) 
Heartbeat CPU 1 instructions: 80000003 cycles: 74662499 heartbeat IPC: 0.51525 cumulative IPC: 0.514132 (Simulation time: 0 hr 31 min 37 sec) 
Heartbeat CPU 2 instructions: 90000001 cycles: 93951397 heartbeat IPC: 0.515243 cumulative IPC: 0.515204 (Simulation time: 0 hr 36 min 51 sec) 
Heartbeat CPU 3 instructions: 90000001 cycles: 93987725 heartbeat IPC: 0.514655 cumulative IPC: 0.514965 (Simulation time: 0 hr 36 min 51 sec) 
Heartbeat CPU 0 instructions: 90000001 cycles: 94008592 heartbeat IPC: 0.515098 cumulative IPC: 0.514813 (Simulation time: 0 hr 36 min 52 sec) 
Heartbeat CPU 1 instructions: 90000001 cycles: 94065687 heartbeat IPC: 0.515379 cumulative IPC: 0.514443 (Simulation time: 0 hr 36 min 53 sec) 
Heartbeat CPU 2 instructions: 100000000 cycles: 113376860 heartbeat IPC: 0.514788 cumulative IPC: 0.515121 (Simulation time: 0 hr 42 min 18 sec) 
Heartbeat CPU 0 instructions: 100000000 cycles: 113408582 heartbeat IPC: 0.515464 cumulative IPC: 0.514943 (Simulation time: 0 hr 42 min 18 sec) 
Heartbeat CPU 3 instructions: 100000000 cycles: 113409347 heartbeat IPC: 0.51489 cumulative IPC: 0.51495 (Simulation time: 0 hr 42 min 18 sec) 
Heartbeat CPU 1 instructions: 100000000 cycles: 113489896 heartbeat IPC: 0.514821 cumulative IPC: 0.514519 (Simulation time: 0 hr 42 min 20 sec) 
Heartbeat CPU 2 instructions: 110000000 cycles: 132974225 heartbeat IPC: 0.510273 cumulative IPC: 0.514306 (Simulation time: 0 hr 47 min 8 sec) 
Heartbeat CPU 3 instructions: 110000000 cycles: 133045191 heartbeat IPC: 0.509273 cumulative IPC: 0.513995 (Simulation time: 0 hr 47 min 9 sec) 
Heartbeat CPU 0 instructions: 110000000 cycles: 133063158 heartbeat IPC: 0.508787 cumulative IPC: 0.513907 (Simulation time: 0 hr 47 min 9 sec) 
Heartbeat CPU 1 instructions: 110000000 cycles: 133129851 heartbeat IPC: 0.509166 cumulative IPC: 0.513619 (Simulation time: 0 hr 47 min 10 sec) 
Heartbeat CPU 2 instructions: 120000003 cycles: 152680335 heartbeat IPC: 0.507457 cumulative IPC: 0.513316 (Simulation time: 0 hr 51 min 46 sec) 
Heartbeat CPU 3 instructions: 120000003 cycles: 152699534 heartbeat IPC: 0.508794 cumulative IPC: 0.513245 (Simulation time: 0 hr 51 min 46 sec) 
Heartbeat CPU 1 instructions: 120000003 cycles: 152735257 heartbeat IPC: 0.510064 cumulative IPC: 0.513108 (Simulation time: 0 hr 51 min 47 sec) 
Heartbeat CPU 0 instructions: 120000003 cycles: 152752837 heartbeat IPC: 0.50788 cumulative IPC: 0.513037 (Simulation time: 0 hr 51 min 47 sec) 
Heartbeat CPU 2 instructions: 130000003 cycles: 172114920 heartbeat IPC: 0.514547 cumulative IPC: 0.51347 (Simulation time: 0 hr 56 min 25 sec) 
Heartbeat CPU 3 instructions: 130000003 cycles: 172155529 heartbeat IPC: 0.51398 cumulative IPC: 0.513337 (Simulation time: 0 hr 56 min 26 sec) 
Heartbeat CPU 1 instructions: 130000003 cycles: 172185599 heartbeat IPC: 0.51413 cumulative IPC: 0.513235 (Simulation time: 0 hr 56 min 26 sec) 
Heartbeat CPU 0 instructions: 130000003 cycles: 172212242 heartbeat IPC: 0.51389 cumulative IPC: 0.513144 (Simulation time: 0 hr 56 min 27 sec) 
Heartbeat CPU 2 instructions: 140000000 cycles: 191500638 heartbeat IPC: 0.515844 cumulative IPC: 0.513732 (Simulation time: 1 hr 1 min 10 sec) 
Heartbeat CPU 3 instructions: 140000000 cycles: 191559336 heartbeat IPC: 0.515363 cumulative IPC: 0.513561 (Simulation time: 1 hr 1 min 11 sec) 
Heartbeat CPU 1 instructions: 140000000 cycles: 191603457 heartbeat IPC: 0.51499 cumulative IPC: 0.51343 (Simulation time: 1 hr 1 min 12 sec) 
Heartbeat CPU 0 instructions: 140000000 cycles: 191628019 heartbeat IPC: 0.515045 cumulative IPC: 0.513354 (Simulation time: 1 hr 1 min 12 sec) 
Heartbeat CPU 2 instructions: 150000000 cycles: 210897737 heartbeat IPC: 0.515541 cumulative IPC: 0.513913 (Simulation time: 1 hr 5 min 54 sec) 
Heartbeat CPU 3 instructions: 150000000 cycles: 210960658 heartbeat IPC: 0.515429 cumulative IPC: 0.513747 (Simulation time: 1 hr 5 min 55 sec) 
Heartbeat CPU 1 instructions: 150000000 cycles: 211010841 heartbeat IPC: 0.515268 cumulative IPC: 0.513613 (Simulation time: 1 hr 5 min 56 sec) 
Heartbeat CPU 0 instructions: 150000000 cycles: 211039775 heartbeat IPC: 0.515152 cumulative IPC: 0.513533 (Simulation time: 1 hr 5 min 56 sec) 
Heartbeat CPU 2 instructions: 160000000 cycles: 230460721 heartbeat IPC: 0.511169 cumulative IPC: 0.513662 (Simulation time: 1 hr 10 min 40 sec) 
Heartbeat CPU 3 instructions: 160000000 cycles: 230571065 heartbeat IPC: 0.509933 cumulative IPC: 0.513398 (Simulation time: 1 hr 10 min 42 sec) 
Heartbeat CPU 1 instructions: 160000000 cycles: 230590688 heartbeat IPC: 0.510729 cumulative IPC: 0.513349 (Simulation time: 1 hr 10 min 43 sec) 
Heartbeat CPU 0 instructions: 160000000 cycles: 230639550 heartbeat IPC: 0.51021 cumulative IPC: 0.513229 (Simulation time: 1 hr 10 min 44 sec) 
Heartbeat CPU 2 instructions: 170000003 cycles: 249970447 heartbeat IPC: 0.512565 cumulative IPC: 0.513571 (Simulation time: 1 hr 15 min 46 sec) 
Heartbeat CPU 3 instructions: 170000003 cycles: 250052521 heartbeat IPC: 0.513309 cumulative IPC: 0.513391 (Simulation time: 1 hr 15 min 47 sec) 
Heartbeat CPU 1 instructions: 170000003 cycles: 250085469 heartbeat IPC: 0.512958 cumulative IPC: 0.513317 (Simulation time: 1 hr 15 min 48 sec) 
Heartbeat CPU 0 instructions: 170000003 cycles: 250121982 heartbeat IPC: 0.513283 cumulative IPC: 0.513234 (Simulation time: 1 hr 15 min 48 sec) 
Heartbeat CPU 2 instructions: 180000000 cycles: 269429607 heartbeat IPC: 0.513897 cumulative IPC: 0.513596 (Simulation time: 1 hr 21 min 3 sec) 
Heartbeat CPU 3 instructions: 180000000 cycles: 269492334 heartbeat IPC: 0.514408 cumulative IPC: 0.513469 (Simulation time: 1 hr 21 min 4 sec) 
Heartbeat CPU 0 instructions: 180000000 cycles: 269546783 heartbeat IPC: 0.514806 cumulative IPC: 0.513354 (Simulation time: 1 hr 21 min 5 sec) 
Heartbeat CPU 1 instructions: 180000000 cycles: 269581154 heartbeat IPC: 0.512934 cumulative IPC: 0.513287 (Simulation time: 1 hr 21 min 6 sec) 
Heartbeat CPU 2 instructions: 190000003 cycles: 289076415 heartbeat IPC: 0.508989 cumulative IPC: 0.513264 (Simulation time: 1 hr 26 min 17 sec) 
Heartbeat CPU 3 instructions: 190000003 cycles: 289156075 heartbeat IPC: 0.50855 cumulative IPC: 0.513115 (Simulation time: 1 hr 26 min 19 sec) 
Heartbeat CPU 0 instructions: 190000003 cycles: 289225235 heartbeat IPC: 0.50817 cumulative IPC: 0.512981 (Simulation time: 1 hr 26 min 20 sec) 
Heartbeat CPU 1 instructions: 190000003 cycles: 289303417 heartbeat IPC: 0.507041 cumulative IPC: 0.512836 (Simulation time: 1 hr 26 min 21 sec) 
Heartbeat CPU 2 instructions: 200000000 cycles: 308438402 heartbeat IPC: 0.516476 cumulative IPC: 0.513477 (Simulation time: 1 hr 31 min 21 sec) 
Heartbeat CPU 3 instructions: 200000000 cycles: 308522178 heartbeat IPC: 0.516366 cumulative IPC: 0.51333 (Simulation time: 1 hr 31 min 22 sec) 
Heartbeat CPU 0 instructions: 200000000 cycles: 308591965 heartbeat IPC: 0.516349 cumulative IPC: 0.513204 (Simulation time: 1 hr 31 min 24 sec) 
Heartbeat CPU 1 instructions: 200000000 cycles: 308678231 heartbeat IPC: 0.516134 cumulative IPC: 0.513055 (Simulation time: 1 hr 31 min 25 sec) 
Heartbeat CPU 2 instructions: 210000002 cycles: 327890051 heartbeat IPC: 0.514095 cumulative IPC: 0.513515 (Simulation time: 1 hr 36 min 11 sec) 
Heartbeat CPU 3 instructions: 210000002 cycles: 328063071 heartbeat IPC: 0.511747 cumulative IPC: 0.513231 (Simulation time: 1 hr 36 min 14 sec) 
Heartbeat CPU 0 instructions: 210000002 cycles: 328095780 heartbeat IPC: 0.51272 cumulative IPC: 0.513174 (Simulation time: 1 hr 36 min 15 sec) 
Heartbeat CPU 1 instructions: 210000002 cycles: 328137842 heartbeat IPC: 0.513885 cumulative IPC: 0.513106 (Simulation time: 1 hr 36 min 15 sec) 
Heartbeat CPU 2 instructions: 220000000 cycles: 347478047 heartbeat IPC: 0.510517 cumulative IPC: 0.513338 (Simulation time: 1 hr 41 min 47 sec) 
Heartbeat CPU 3 instructions: 220000000 cycles: 347644001 heartbeat IPC: 0.510701 cumulative IPC: 0.513081 (Simulation time: 1 hr 41 min 49 sec) 
Heartbeat CPU 0 instructions: 220000000 cycles: 347649343 heartbeat IPC: 0.511416 cumulative IPC: 0.51307 (Simulation time: 1 hr 41 min 50 sec) 
Heartbeat CPU 1 instructions: 220000000 cycles: 347701388 heartbeat IPC: 0.511155 cumulative IPC: 0.512991 (Simulation time: 1 hr 41 min 51 sec) 
Heartbeat CPU 2 instructions: 230000003 cycles: 367312989 heartbeat IPC: 0.504161 cumulative IPC: 0.512819 (Simulation time: 1 hr 47 min 6 sec) 
Heartbeat CPU 3 instructions: 230000003 cycles: 367394820 heartbeat IPC: 0.506308 cumulative IPC: 0.5127 (Simulation time: 1 hr 47 min 8 sec) 
Heartbeat CPU 0 instructions: 230000003 cycles: 367395664 heartbeat IPC: 0.506424 cumulative IPC: 0.512696 (Simulation time: 1 hr 47 min 8 sec) 
Heartbeat CPU 1 instructions: 230000003 cycles: 367434964 heartbeat IPC: 0.506751 cumulative IPC: 0.51264 (Simulation time: 1 hr 47 min 8 sec) 
Heartbeat CPU 2 instructions: 240000000 cycles: 386778025 heartbeat IPC: 0.513741 cumulative IPC: 0.512868 (Simulation time: 1 hr 52 min 14 sec) 
Heartbeat CPU 0 instructions: 240000000 cycles: 386869475 heartbeat IPC: 0.51351 cumulative IPC: 0.512739 (Simulation time: 1 hr 52 min 16 sec) 
Heartbeat CPU 3 instructions: 240000000 cycles: 386903233 heartbeat IPC: 0.512599 cumulative IPC: 0.512695 (Simulation time: 1 hr 52 min 17 sec) 
Heartbeat CPU 1 instructions: 240000000 cycles: 386929559 heartbeat IPC: 0.512963 cumulative IPC: 0.512657 (Simulation time: 1 hr 52 min 17 sec) 
Heartbeat CPU 2 instructions: 250000000 cycles: 406594230 heartbeat IPC: 0.504637 cumulative IPC: 0.51245 (Simulation time: 1 hr 57 min 38 sec) 
Finished CPU 2 instructions: 200000000 cycles: 390281977 cumulative IPC: 0.51245 (Simulation time: 1 hr 57 min 38 sec) 
Heartbeat CPU 0 instructions: 250000000 cycles: 406675798 heartbeat IPC: 0.504889 cumulative IPC: 0.512341 (Simulation time: 1 hr 57 min 40 sec) 
Finished CPU 0 instructions: 200000000 cycles: 390365205 cumulative IPC: 0.512341 (Simulation time: 1 hr 57 min 40 sec) 
Heartbeat CPU 3 instructions: 250000000 cycles: 406693688 heartbeat IPC: 0.505294 cumulative IPC: 0.51232 (Simulation time: 1 hr 57 min 40 sec) 
Finished CPU 3 instructions: 200000000 cycles: 390381189 cumulative IPC: 0.51232 (Simulation time: 1 hr 57 min 40 sec) 
Heartbeat CPU 1 instructions: 250000000 cycles: 406759141 heartbeat IPC: 0.504297 cumulative IPC: 0.512233 (Simulation time: 1 hr 57 min 41 sec) 
Finished CPU 1 instructions: 200000001 cycles: 390447384 cumulative IPC: 0.512233 (Simulation time: 1 hr 57 min 41 sec) 

ChampSim completed all CPUs

Total Simulation Statistics (not including warmup)

CPU 0 cumulative IPC: 0.512343 instructions: 200042927 cycles: 390447384
ITLB TOTAL     ACCESS:   54103076  HIT:   54103076  MISS:          0  HIT %:        100  MISS %:          0   MPKI: 0
ITLB LOAD      ACCESS:          0  HIT:          0  MISS:          0  HIT %:       -nan  MISS %:       -nan   MPKI: 0
ITLB RFO       ACCESS:          0  HIT:          0  MISS:          0  HIT %:       -nan  MISS %:       -nan   MPKI: 0
ITLB PREFETCH  ACCESS:          0  HIT:          0  MISS:          0  HIT %:       -nan  MISS %:       -nan   MPKI: 0
ITLB WRITEBACK ACCESS:          0  HIT:          0  MISS:          0  HIT %:       -nan  MISS %:       -nan   MPKI: 0
DTLB TOTAL     ACCESS:   54975525  HIT:   54909372  MISS:      66153  HIT %:    99.8797  MISS %:   0.120332   MPKI: 0.330694
DTLB LOAD      ACCESS:          0  HIT:          0  MISS:          0  HIT %:       -nan  MISS %:       -nan   MPKI: 0
DTLB RFO       ACCESS:          0  HIT:          0  MISS:          0  HIT %:       -nan  MISS %:       -nan   MPKI: 0
DTLB PREFETCH  ACCESS:          0  HIT:          0  MISS:          0  HIT %:       -nan  MISS %:       -nan   MPKI: 0
DTLB WRITEBACK ACCESS:          0  HIT:          0  MISS:          0  HIT %:       -nan  MISS %:       -nan   MPKI: 0
STLB TOTAL     ACCESS:    3100301  HIT:    3039203  MISS:      61098  HIT %:    98.0293  MISS %:    1.97071   MPKI: 0.305424
STLB LOAD      ACCESS:          0  HIT:          0  MISS:          0  HIT %:       -nan  MISS %:       -nan   MPKI: 0
STLB RFO       ACCESS:          0  HIT:          0  MISS:          0  HIT %:       -nan  MISS %:       -nan   MPKI: 0
STLB PREFETCH  ACCESS:          0  HIT:          0  MISS:          0  HIT %:       -nan  MISS %:       -nan   MPKI: 0
STLB WRITEBACK ACCESS:          0  HIT:          0  MISS:          0  HIT %:       -nan  MISS %:       -nan   MPKI: 0
L1D TOTAL     ACCESS:   61765050  HIT:   56705845  MISS:    5059205  HIT %:     91.809  MISS %:    8.19105   MPKI: 25.2906
L1D LOAD      ACCESS:   38852067  HIT:   37292856  MISS:    1559211  HIT %:    95.9868  MISS %:     4.0132   MPKI: 7.79438
L1D RFO       ACCESS:   19414580  HIT:   19412989  MISS:       1591  HIT %:    99.9918  MISS %: 0.00819487   MPKI: 0.00795329
L1D PREFETCH  ACCESS:    3498403  HIT:          0  MISS:    3498403  HIT %:          0  MISS %:        100   MPKI: 17.4883
L1D WRITEBACK ACCESS:          0  HIT:          0  MISS:          0  HIT %:       -nan  MISS %:       -nan   MPKI: 0
L1I TOTAL     ACCESS:   58026546  HIT:   58026546  MISS:          0  HIT %:        100  MISS %:          0   MPKI: 0
L1I LOAD      ACCESS:   58026546  HIT:   58026546  MISS:          0  HIT %:        100  MISS %:          0   MPKI: 0
L1I RFO       ACCESS:          0  HIT:          0  MISS:          0  HIT %:       -nan  MISS %:       -nan   MPKI: 0
L1I PREFETCH  ACCESS:          0  HIT:          0  MISS:          0  HIT %:       -nan  MISS %:       -nan   MPKI: 0
L1I WRITEBACK ACCESS:          0  HIT:          0  MISS:          0  HIT %:       -nan  MISS %:       -nan   MPKI: 0
L2C TOTAL     ACCESS:    5858602  HIT:    2201714  MISS:    3656888  HIT %:    37.5809  MISS %:    62.4191   MPKI: 18.2805
L2C LOAD      ACCESS:    1509908  HIT:    1423433  MISS:      86475  HIT %:    94.2728  MISS %:    5.72717   MPKI: 0.432282
L2C RFO       ACCESS:       1591  HIT:       1026  MISS:        565  HIT %:    64.4877  MISS %:    35.5123   MPKI: 0.00282439
L2C PREFETCH  ACCESS:    4274384  HIT:     715996  MISS:    3558388  HIT %:    16.7509  MISS %:    83.2491   MPKI: 17.7881
L2C WRITEBACK ACCESS:      11288  HIT:      11263  MISS:         25  HIT %:    99.7785  MISS %:   0.221474   MPKI: 0.000124973
PSCL5 TOTAL     ACCESS:      61098  HIT:      61098  MISS:          0  HIT %:        100  MISS %:          0   MPKI: 0
PSCL5 LOAD      ACCESS:          0  HIT:          0  MISS:          0  HIT %:       -nan  MISS %:       -nan   MPKI: 0
PSCL5 RFO       ACCESS:          0  HIT:          0  MISS:          0  HIT %:       -nan  MISS %:       -nan   MPKI: 0
PSCL5 PREFETCH  ACCESS:          0  HIT:          0  MISS:          0  HIT %:       -nan  MISS %:       -nan   MPKI: 0
PSCL5 WRITEBACK ACCESS:          0  HIT:          0  MISS:          0  HIT %:       -nan  MISS %:       -nan   MPKI: 0
PSCL4 TOTAL     ACCESS:      61098  HIT:      61098  MISS:          0  HIT %:        100  MISS %:          0   MPKI: 0
PSCL4 LOAD      ACCESS:          0  HIT:          0  MISS:          0  HIT %:       -nan  MISS %:       -nan   MPKI: 0
PSCL4 RFO       ACCESS:          0  HIT:          0  MISS:          0  HIT %:       -nan  MISS %:       -nan   MPKI: 0
PSCL4 PREFETCH  ACCESS:          0  HIT:          0  MISS:          0  HIT %:       -nan  MISS %:       -nan   MPKI: 0
PSCL4 WRITEBACK ACCESS:          0  HIT:          0  MISS:          0  HIT %:       -nan  MISS %:       -nan   MPKI: 0
PSCL3 TOTAL     ACCESS:      61098  HIT:      61097  MISS:          1  HIT %:    99.9984  MISS %: 0.00163671   MPKI: 4.99893e-06
PSCL3 LOAD      ACCESS:          0  HIT:          0  MISS:          0  HIT %:       -nan  MISS %:       -nan   MPKI: 0
PSCL3 RFO       ACCESS:          0  HIT:          0  MISS:          0  HIT %:       -nan  MISS %:       -nan   MPKI: 0
PSCL3 PREFETCH  ACCESS:          0  HIT:          0  MISS:          0  HIT %:       -nan  MISS %:       -nan   MPKI: 0
PSCL3 WRITEBACK ACCESS:          0  HIT:          0  MISS:          0  HIT %:       -nan  MISS %:       -nan   MPKI: 0
PSCL2 TOTAL     ACCESS:      61098  HIT:      60360  MISS:        738  HIT %:    98.7921  MISS %:     1.2079   MPKI: 0.00368921
PSCL2 LOAD      ACCESS:          0  HIT:          0  MISS:          0  HIT %:       -nan  MISS %:       -nan   MPKI: 0
PSCL2 RFO       ACCESS:          0  HIT:          0  MISS:          0  HIT %:       -nan  MISS %:       -nan   MPKI: 0
PSCL2 PREFETCH  ACCESS:          0  HIT:          0  MISS:          0  HIT %:       -nan  MISS %:       -nan   MPKI: 0
PSCL2 WRITEBACK ACCESS:          0  HIT:          0  MISS:          0  HIT %:       -nan  MISS %:       -nan   MPKI: 0
=== CPU 0 L1D Prefetcher Statistics ===
[MLOP] History of tracked zone:
IIIIIIIIIIIIIIIIIIIIIIIIIIIIIIIIIIIIIIIIIIIIIIIIIIIIIIIIIIIIIIII
A1111111IIIIIIIIIIIIIIIIIIIIIIIIIIIIIIIIIIIIIIIIIIIIIIIIIIIIIIII
AA1111111IIIIIIIIIIIIIIIIIIIIIIIIIIIIIIIIIIIIIIIIIIIIIIIIIIIIIII
AAA1111111IIIIIIIIIIIIIIIIIIIIIIIIIIIIIIIIIIIIIIIIIIIIIIIIIIIIII
AAAA1111111IIIIIIIIIIIIIIIIIIIIIIIIIIIIIIIIIIIIIIIIIIIIIIIIIIIII
AAAAA1111111IIIIIIIIIIIIIIIIIIIIIIIIIIIIIIIIIIIIIIIIIIIIIIIIIIII
AAAAAA1111111IIIIIIIIIIIIIIIIIIIIIIIIIIIIIIIIIIIIIIIIIIIIIIIIIII
AAAAAAA1111111IIIIIIIIIIIIIIIIIIIIIIIIIIIIIIIIIIIIIIIIIIIIIIIIII
AAAAAAAA1111111IIIIIIIIIIIIIIIIIIIIIIIIIIIIIIIIIIIIIIIIIIIIIIIII
AAAAAAAAA1111111IIIIIIIIIIIIIIIIIIIIIIIIIIIIIIIIIIIIIIIIIIIIIIII
AAAAAAAAAA1111111IIIIIIIIIIIIIIIIIIIIIIIIIIIIIIIIIIIIIIIIIIIIIII
AAAAAAAAAAA1111111IIIIIIIIIIIIIIIIIIIIIIIIIIIIIIIIIIIIIIIIIIIIII
AAAAAAAAAAAA1111111IIIIIIIIIIIIIIIIIIIIIIIIIIIIIIIIIIIIIIIIIIIII
AAAAAAAAAAAAA1111111IIIIIIIIIIIIIIIIIIIIIIIIIIIIIIIIIIIIIIIIIIII
AAAAAAAAAAAAAA1111111IIIIIIIIIIIIIIIIIIIIIIIIIIIIIIIIIIIIIIIIIII
AAAAAAAAAAAAAAA1111111IIIIIIIIIIIIIIIIIIIIIIIIIIIIIIIIIIIIIIIIII
AAAAAAAAAAAAAAAA1111111IIIIIIIIIIIIIIIIIIIIIIIIIIIIIIIIIIIIIIIII
AAAAAAAAAAAAAAAAA1111111IIIIIIIIIIIIIIIIIIIIIIIIIIIIIIIIIIIIIIII
AAAAAAAAAAAAAAAAAA1111111IIIIIIIIIIIIIIIIIIIIIIIIIIIIIIIIIIIIIII
AAAAAAAAAAAAAAAAAAA1111111IIIIIIIIIIIIIIIIIIIIIIIIIIIIIIIIIIIIII
AAAAAAAAAAAAAAAAAAAA1111111IIIIIIIIIIIIIIIIIIIIIIIIIIIIIIIIIIIII
AAAAAAAAAAAAAAAAAAAAA1111111IIIIIIIIIIIIIIIIIIIIIIIIIIIIIIIIIIII
AAAAAAAAAAAAAAAAAAAAAA1111111IIIIIIIIIIIIIIIIIIIIIIIIIIIIIIIIIII
AAAAAAAAAAAAAAAAAAAAAAA1111111IIIIIIIIIIIIIIIIIIIIIIIIIIIIIIIIII
AAAAAAAAAAAAAAAAAAAAAAAA1111111IIIIIIIIIIIIIIIIIIIIIIIIIIIIIIIII
AAAAAAAAAAAAAAAAAAAAAAAAA1111111IIIIIIIIIIIIIIIIIIIIIIIIIIIIIIII
AAAAAAAAAAAAAAAAAAAAAAAAAA1111111IIIIIIIIIIIIIIIIIIIIIIIIIIIIIII
AAAAAAAAAAAAAAAAAAAAAAAAAAA1111111IIIIIIIIIIIIIIIIIIIIIIIIIIIIII
AAAAAAAAAAAAAAAAAAAAAAAAAAAA1111111IIIIIIIIIIIIIIIIIIIIIIIIIIIII
AAAAAAAAAAAAAAAAAAAAAAAAAAAAA1111111IIIIIIIIIIIIIIIIIIIIIIIIIIII
AAAAAAAAAAAAAAAAAAAAAAAAAAAAAA1111111IIIIIIIIIIIIIIIIIIIIIIIIIII
AAAAAAAAAAAAAAAAAAAAAAAAAAAAAAA1111111IIIIIIIIIIIIIIIIIIIIIIIIII
AAAAAAAAAAAAAAAAAAAAAAAAAAAAAAAA1111111IIIIIIIIIIIIIIIIIIIIIIIII
AAAAAAAAAAAAAAAAAAAAAAAAAAAAAAAAA1111111IIIIIIIIIIIIIIIIIIIIIIII
AAAAAAAAAAAAAAAAAAAAAAAAAAAAAAAAAA1111111IIIIIIIIIIIIIIIIIIIIIII
AAAAAAAAAAAAAAAAAAAAAAAAAAAAAAAAAAA1111111IIIIIIIIIIIIIIIIIIIIII
AAAAAAAAAAAAAAAAAAAAAAAAAAAAAAAAAAAA1111111IIIIIIIIIIIIIIIIIIIII
AAAAAAAAAAAAAAAAAAAAAAAAAAAAAAAAAAAAA1111111IIIIIIIIIIIIIIIIIIII
AAAAAAAAAAAAAAAAAAAAAAAAAAAAAAAAAAAAAA1111111IIIIIIIIIIIIIIIIIII
AAAAAAAAAAAAAAAAAAAAAAAAAAAAAAAAAAAAAAA1111111IIIIIIIIIIIIIIIIII
AAAAAAAAAAAAAAAAAAAAAAAAAAAAAAAAAAAAAAAA1111111IIIIIIIIIIIIIIIII
AAAAAAAAAAAAAAAAAAAAAAAAAAAAAAAAAAAAAAAAA1111111IIIIIIIIIIIIIIII
AAAAAAAAAAAAAAAAAAAAAAAAAAAAAAAAAAAAAAAAAA1111111IIIIIIIIIIIIIII
AAAAAAAAAAAAAAAAAAAAAAAAAAAAAAAAAAAAAAAAAAA1111111IIIIIIIIIIIIII
AAAAAAAAAAAAAAAAAAAAAAAAAAAAAAAAAAAAAAAAAAAA1111111IIIIIIIIIIIII
AAAAAAAAAAAAAAAAAAAAAAAAAAAAAAAAAAAAAAAAAAAAA1111111IIIIIIIIIIII
AAAAAAAAAAAAAAAAAAAAAAAAAAAAAAAAAAAAAAAAAAAAAA1111111IIIIIIIIIII
AAAAAAAAAAAAAAAAAAAAAAAAAAAAAAAAAAAAAAAAAAAAAAA1111111IIIIIIIIII
AAAAAAAAAAAAAAAAAAAAAAAAAAAAAAAAAAAAAAAAAAAAAAAA1111111IIIIIIIII
AAAAAAAAAAAAAAAAAAAAAAAAAAAAAAAAAAAAAAAAAAAAAAAAA1111111IIIIIIII
AAAAAAAAAAAAAAAAAAAAAAAAAAAAAAAAAAAAAAAAAAAAAAAAAA1111111IIIIIII
AAAAAAAAAAAAAAAAAAAAAAAAAAAAAAAAAAAAAAAAAAAAAAAAAAA1111111IIIIII
AAAAAAAAAAAAAAAAAAAAAAAAAAAAAAAAAAAAAAAAAAAAAAAAAAAA1111111IIIII
AAAAAAAAAAAAAAAAAAAAAAAAAAAAAAAAAAAAAAAAAAAAAAAAAAAAA1111111IIII
AAAAAAAAAAAAAAAAAAAAAAAAAAAAAAAAAAAAAAAAAAAAAAAAAAAAAA1111111III
AAAAAAAAAAAAAAAAAAAAAAAAAAAAAAAAAAAAAAAAAAAAAAAAAAAAAAA1111111II
AAAAAAAAAAAAAAAAAAAAAAAAAAAAAAAAAAAAAAAAAAAAAAAAAAAAAAAA1111111I
AAAAAAAAAAAAAAAAAAAAAAAAAAAAAAAAAAAAAAAAAAAAAAAAAAAAAAAAA1111111
AAAAAAAAAAAAAAAAAAAAAAAAAAAAAAAAAAAAAAAAAAAAAAAAAAAAAAAAAA111111
AAAAAAAAAAAAAAAAAAAAAAAAAAAAAAAAAAAAAAAAAAAAAAAAAAAAAAAAAAA11111
AAAAAAAAAAAAAAAAAAAAAAAAAAAAAAAAAAAAAAAAAAAAAAAAAAAAAAAAAAAA1111
AAAAAAAAAAAAAAAAAAAAAAAAAAAAAAAAAAAAAAAAAAAAAAAAAAAAAAAAAAAAA111
AAAAAAAAAAAAAAAAAAAAAAAAAAAAAAAAAAAAAAAAAAAAAAAAAAAAAAAAAAAAAA11
AAAAAAAAAAAAAAAAAAAAAAAAAAAAAAAAAAAAAAAAAAAAAAAAAAAAAAAAAAAAAAA1
AAAAAAAAAAAAAAAAAAAAAAAAAAAAAAAAAAAAAAAAAAAAAAAAAAAAAAAAAAAAAAAA
[MLOP] Prefetch Degree Mean: 7.689
[MLOP] Prefetch Degree SD: 2.47744
[MLOP] Max Score Left Mean (%): 48.9014
[MLOP] Max Score Left SD (%): 21.7814
[MLOP] Max Score Right Mean (%): 84.6861
[MLOP] Max Score Right SD (%): 12.1359
LLC TOTAL     ACCESS:    3661817  HIT:      18363  MISS:    3643454  HIT %:   0.501472  MISS %:    99.4985   MPKI: 18.2134
LLC LOAD      ACCESS:      86472  HIT:       9582  MISS:      76890  HIT %:     11.081  MISS %:     88.919   MPKI: 0.384368
LLC RFO       ACCESS:        565  HIT:        536  MISS:         29  HIT %:    94.8673  MISS %:    5.13274   MPKI: 0.000144969
LLC PREFETCH  ACCESS:    3558391  HIT:       2312  MISS:    3556079  HIT %:  0.0649732  MISS %:     99.935   MPKI: 17.7766
LLC WRITEBACK ACCESS:       4954  HIT:       4828  MISS:        126  HIT %:    97.4566  MISS %:     2.5434   MPKI: 0.000629865

RAW hits: 2741
Loads Generated: 55608138
Loads sent to L1D: 55605397
Stores Generated: 19415070
Stores sent to L1D: 19415069

CPU 1 cumulative IPC: 0.512233 instructions: 200000001 cycles: 390447384
ITLB TOTAL     ACCESS:   54090682  HIT:   54090682  MISS:          0  HIT %:        100  MISS %:          0   MPKI: 0
ITLB LOAD      ACCESS:          0  HIT:          0  MISS:          0  HIT %:       -nan  MISS %:       -nan   MPKI: 0
ITLB RFO       ACCESS:          0  HIT:          0  MISS:          0  HIT %:       -nan  MISS %:       -nan   MPKI: 0
ITLB PREFETCH  ACCESS:          0  HIT:          0  MISS:          0  HIT %:       -nan  MISS %:       -nan   MPKI: 0
ITLB WRITEBACK ACCESS:          0  HIT:          0  MISS:          0  HIT %:       -nan  MISS %:       -nan   MPKI: 0
DTLB TOTAL     ACCESS:   54963889  HIT:   54897750  MISS:      66139  HIT %:    99.8797  MISS %:   0.120332   MPKI: 0.330695
DTLB LOAD      ACCESS:          0  HIT:          0  MISS:          0  HIT %:       -nan  MISS %:       -nan   MPKI: 0
DTLB RFO       ACCESS:          0  HIT:          0  MISS:          0  HIT %:       -nan  MISS %:       -nan   MPKI: 0
DTLB PREFETCH  ACCESS:          0  HIT:          0  MISS:          0  HIT %:       -nan  MISS %:       -nan   MPKI: 0
DTLB WRITEBACK ACCESS:          0  HIT:          0  MISS:          0  HIT %:       -nan  MISS %:       -nan   MPKI: 0
STLB TOTAL     ACCESS:    3100089  HIT:    3039002  MISS:      61087  HIT %:    98.0295  MISS %:    1.97049   MPKI: 0.305435
STLB LOAD      ACCESS:          0  HIT:          0  MISS:          0  HIT %:       -nan  MISS %:       -nan   MPKI: 0
STLB RFO       ACCESS:          0  HIT:          0  MISS:          0  HIT %:       -nan  MISS %:       -nan   MPKI: 0
STLB PREFETCH  ACCESS:          0  HIT:          0  MISS:          0  HIT %:       -nan  MISS %:       -nan   MPKI: 0
STLB WRITEBACK ACCESS:          0  HIT:          0  MISS:          0  HIT %:       -nan  MISS %:       -nan   MPKI: 0
L1D TOTAL     ACCESS:   61748175  HIT:   56688676  MISS:    5059499  HIT %:    91.8062  MISS %:    8.19376   MPKI: 25.2975
L1D LOAD      ACCESS:   38842935  HIT:   37279768  MISS:    1563167  HIT %:    95.9757  MISS %:    4.02433   MPKI: 7.81583
L1D RFO       ACCESS:   19410501  HIT:   19408908  MISS:       1593  HIT %:    99.9918  MISS %:  0.0082069   MPKI: 0.007965
L1D PREFETCH  ACCESS:    3494739  HIT:          0  MISS:    3494739  HIT %:          0  MISS %:        100   MPKI: 17.4737
L1D WRITEBACK ACCESS:          0  HIT:          0  MISS:          0  HIT %:       -nan  MISS %:       -nan   MPKI: 0
L1I TOTAL     ACCESS:   58013219  HIT:   58013219  MISS:          0  HIT %:        100  MISS %:          0   MPKI: 0
L1I LOAD      ACCESS:   58013219  HIT:   58013219  MISS:          0  HIT %:        100  MISS %:          0   MPKI: 0
L1I RFO       ACCESS:          0  HIT:          0  MISS:          0  HIT %:       -nan  MISS %:       -nan   MPKI: 0
L1I PREFETCH  ACCESS:          0  HIT:          0  MISS:          0  HIT %:       -nan  MISS %:       -nan   MPKI: 0
L1I WRITEBACK ACCESS:          0  HIT:          0  MISS:          0  HIT %:       -nan  MISS %:       -nan   MPKI: 0
L2C TOTAL     ACCESS:    5764440  HIT:    2109034  MISS:    3655406  HIT %:     36.587  MISS %:     63.413   MPKI: 18.277
L2C LOAD      ACCESS:    1509822  HIT:    1423141  MISS:      86681  HIT %:    94.2589  MISS %:    5.74114   MPKI: 0.433405
L2C RFO       ACCESS:       1593  HIT:       1018  MISS:        575  HIT %:    63.9046  MISS %:    36.0954   MPKI: 0.002875
L2C PREFETCH  ACCESS:    4180304  HIT:     623630  MISS:    3556674  HIT %:    14.9183  MISS %:    85.0817   MPKI: 17.7834
L2C WRITEBACK ACCESS:      11307  HIT:      11275  MISS:         32  HIT %:     99.717  MISS %:   0.283011   MPKI: 0.00016
PSCL5 TOTAL     ACCESS:      61087  HIT:      61087  MISS:          0  HIT %:        100  MISS %:          0   MPKI: 0
PSCL5 LOAD      ACCESS:          0  HIT:          0  MISS:          0  HIT %:       -nan  MISS %:       -nan   MPKI: 0
PSCL5 RFO       ACCESS:          0  HIT:          0  MISS:          0  HIT %:       -nan  MISS %:       -nan   MPKI: 0
PSCL5 PREFETCH  ACCESS:          0  HIT:          0  MISS:          0  HIT %:       -nan  MISS %:       -nan   MPKI: 0
PSCL5 WRITEBACK ACCESS:          0  HIT:          0  MISS:          0  HIT %:       -nan  MISS %:       -nan   MPKI: 0
PSCL4 TOTAL     ACCESS:      61087  HIT:      61087  MISS:          0  HIT %:        100  MISS %:          0   MPKI: 0
PSCL4 LOAD      ACCESS:          0  HIT:          0  MISS:          0  HIT %:       -nan  MISS %:       -nan   MPKI: 0
PSCL4 RFO       ACCESS:          0  HIT:          0  MISS:          0  HIT %:       -nan  MISS %:       -nan   MPKI: 0
PSCL4 PREFETCH  ACCESS:          0  HIT:          0  MISS:          0  HIT %:       -nan  MISS %:       -nan   MPKI: 0
PSCL4 WRITEBACK ACCESS:          0  HIT:          0  MISS:          0  HIT %:       -nan  MISS %:       -nan   MPKI: 0
PSCL3 TOTAL     ACCESS:      61087  HIT:      61086  MISS:          1  HIT %:    99.9984  MISS %: 0.00163701   MPKI: 5e-06
PSCL3 LOAD      ACCESS:          0  HIT:          0  MISS:          0  HIT %:       -nan  MISS %:       -nan   MPKI: 0
PSCL3 RFO       ACCESS:          0  HIT:          0  MISS:          0  HIT %:       -nan  MISS %:       -nan   MPKI: 0
PSCL3 PREFETCH  ACCESS:          0  HIT:          0  MISS:          0  HIT %:       -nan  MISS %:       -nan   MPKI: 0
PSCL3 WRITEBACK ACCESS:          0  HIT:          0  MISS:          0  HIT %:       -nan  MISS %:       -nan   MPKI: 0
PSCL2 TOTAL     ACCESS:      61087  HIT:      60355  MISS:        732  HIT %:    98.8017  MISS %:    1.19829   MPKI: 0.00366
PSCL2 LOAD      ACCESS:          0  HIT:          0  MISS:          0  HIT %:       -nan  MISS %:       -nan   MPKI: 0
PSCL2 RFO       ACCESS:          0  HIT:          0  MISS:          0  HIT %:       -nan  MISS %:       -nan   MPKI: 0
PSCL2 PREFETCH  ACCESS:          0  HIT:          0  MISS:          0  HIT %:       -nan  MISS %:       -nan   MPKI: 0
PSCL2 WRITEBACK ACCESS:          0  HIT:          0  MISS:          0  HIT %:       -nan  MISS %:       -nan   MPKI: 0
=== CPU 1 L1D Prefetcher Statistics ===
[MLOP] History of tracked zone:
IIIIIIIIIIIIIIIIIIIIIIIIIIIIIIIIIIIIIIIIIIIIIIIIIIIIIIIIIIIIIIII
A1111111IIIIIIIIIIIIIIIIIIIIIIIIIIIIIIIIIIIIIIIIIIIIIIIIIIIIIIII
AA1111111IIIIIIIIIIIIIIIIIIIIIIIIIIIIIIIIIIIIIIIIIIIIIIIIIIIIIII
AAA1111111IIIIIIIIIIIIIIIIIIIIIIIIIIIIIIIIIIIIIIIIIIIIIIIIIIIIII
AAAA1111111IIIIIIIIIIIIIIIIIIIIIIIIIIIIIIIIIIIIIIIIIIIIIIIIIIIII
AAAAA1111111IIIIIIIIIIIIIIIIIIIIIIIIIIIIIIIIIIIIIIIIIIIIIIIIIIII
AAAAAA1111111IIIIIIIIIIIIIIIIIIIIIIIIIIIIIIIIIIIIIIIIIIIIIIIIIII
AAAAAAA1111111IIIIIIIIIIIIIIIIIIIIIIIIIIIIIIIIIIIIIIIIIIIIIIIIII
AAAAAAAA1111111IIIIIIIIIIIIIIIIIIIIIIIIIIIIIIIIIIIIIIIIIIIIIIIII
AAAAAAAAA1111111IIIIIIIIIIIIIIIIIIIIIIIIIIIIIIIIIIIIIIIIIIIIIIII
AAAAAAAAAA1111111IIIIIIIIIIIIIIIIIIIIIIIIIIIIIIIIIIIIIIIIIIIIIII
AAAAAAAAAAA1111111IIIIIIIIIIIIIIIIIIIIIIIIIIIIIIIIIIIIIIIIIIIIII
AAAAAAAAAAAA1111111IIIIIIIIIIIIIIIIIIIIIIIIIIIIIIIIIIIIIIIIIIIII
AAAAAAAAAAAAA1111111IIIIIIIIIIIIIIIIIIIIIIIIIIIIIIIIIIIIIIIIIIII
AAAAAAAAAAAAAA1111111IIIIIIIIIIIIIIIIIIIIIIIIIIIIIIIIIIIIIIIIIII
AAAAAAAAAAAAAAA1111111IIIIIIIIIIIIIIIIIIIIIIIIIIIIIIIIIIIIIIIIII
AAAAAAAAAAAAAAAA1111111IIIIIIIIIIIIIIIIIIIIIIIIIIIIIIIIIIIIIIIII
AAAAAAAAAAAAAAAAA1111111IIIIIIIIIIIIIIIIIIIIIIIIIIIIIIIIIIIIIIII
AAAAAAAAAAAAAAAAAA1111111IIIIIIIIIIIIIIIIIIIIIIIIIIIIIIIIIIIIIII
AAAAAAAAAAAAAAAAAAA1111111IIIIIIIIIIIIIIIIIIIIIIIIIIIIIIIIIIIIII
AAAAAAAAAAAAAAAAAAAA1111111IIIIIIIIIIIIIIIIIIIIIIIIIIIIIIIIIIIII
AAAAAAAAAAAAAAAAAAAAA1111111IIIIIIIIIIIIIIIIIIIIIIIIIIIIIIIIIIII
AAAAAAAAAAAAAAAAAAAAAA1111111IIIIIIIIIIIIIIIIIIIIIIIIIIIIIIIIIII
AAAAAAAAAAAAAAAAAAAAAAA1111111IIIIIIIIIIIIIIIIIIIIIIIIIIIIIIIIII
AAAAAAAAAAAAAAAAAAAAAAAA1111111IIIIIIIIIIIIIIIIIIIIIIIIIIIIIIIII
AAAAAAAAAAAAAAAAAAAAAAAAA1111111IIIIIIIIIIIIIIIIIIIIIIIIIIIIIIII
AAAAAAAAAAAAAAAAAAAAAAAAAA1111111IIIIIIIIIIIIIIIIIIIIIIIIIIIIIII
AAAAAAAAAAAAAAAAAAAAAAAAAAA1111111IIIIIIIIIIIIIIIIIIIIIIIIIIIIII
AAAAAAAAAAAAAAAAAAAAAAAAAAAA1111111IIIIIIIIIIIIIIIIIIIIIIIIIIIII
AAAAAAAAAAAAAAAAAAAAAAAAAAAAA1111111IIIIIIIIIIIIIIIIIIIIIIIIIIII
AAAAAAAAAAAAAAAAAAAAAAAAAAAAAA1111111IIIIIIIIIIIIIIIIIIIIIIIIIII
AAAAAAAAAAAAAAAAAAAAAAAAAAAAAAA1111111IIIIIIIIIIIIIIIIIIIIIIIIII
AAAAAAAAAAAAAAAAAAAAAAAAAAAAAAAA1111111IIIIIIIIIIIIIIIIIIIIIIIII
AAAAAAAAAAAAAAAAAAAAAAAAAAAAAAAAA1111111IIIIIIIIIIIIIIIIIIIIIIII
AAAAAAAAAAAAAAAAAAAAAAAAAAAAAAAAAA1111111IIIIIIIIIIIIIIIIIIIIIII
AAAAAAAAAAAAAAAAAAAAAAAAAAAAAAAAAAA1111111IIIIIIIIIIIIIIIIIIIIII
AAAAAAAAAAAAAAAAAAAAAAAAAAAAAAAAAAAA1111111IIIIIIIIIIIIIIIIIIIII
AAAAAAAAAAAAAAAAAAAAAAAAAAAAAAAAAAAAA1111111IIIIIIIIIIIIIIIIIIII
AAAAAAAAAAAAAAAAAAAAAAAAAAAAAAAAAAAAAA1111111IIIIIIIIIIIIIIIIIII
AAAAAAAAAAAAAAAAAAAAAAAAAAAAAAAAAAAAAAA1111111IIIIIIIIIIIIIIIIII
AAAAAAAAAAAAAAAAAAAAAAAAAAAAAAAAAAAAAAAA1111111IIIIIIIIIIIIIIIII
AAAAAAAAAAAAAAAAAAAAAAAAAAAAAAAAAAAAAAAAA1111111IIIIIIIIIIIIIIII
AAAAAAAAAAAAAAAAAAAAAAAAAAAAAAAAAAAAAAAAAA1111111IIIIIIIIIIIIIII
AAAAAAAAAAAAAAAAAAAAAAAAAAAAAAAAAAAAAAAAAAA1111111IIIIIIIIIIIIII
AAAAAAAAAAAAAAAAAAAAAAAAAAAAAAAAAAAAAAAAAAAA1111111IIIIIIIIIIIII
AAAAAAAAAAAAAAAAAAAAAAAAAAAAAAAAAAAAAAAAAAAAA1111111IIIIIIIIIIII
AAAAAAAAAAAAAAAAAAAAAAAAAAAAAAAAAAAAAAAAAAAAAA1111111IIIIIIIIIII
AAAAAAAAAAAAAAAAAAAAAAAAAAAAAAAAAAAAAAAAAAAAAAA1111111IIIIIIIIII
AAAAAAAAAAAAAAAAAAAAAAAAAAAAAAAAAAAAAAAAAAAAAAAA1111111IIIIIIIII
AAAAAAAAAAAAAAAAAAAAAAAAAAAAAAAAAAAAAAAAAAAAAAAAA1111111IIIIIIII
AAAAAAAAAAAAAAAAAAAAAAAAAAAAAAAAAAAAAAAAAAAAAAAAAA1111111IIIIIII
AAAAAAAAAAAAAAAAAAAAAAAAAAAAAAAAAAAAAAAAAAAAAAAAAAA1111111IIIIII
AAAAAAAAAAAAAAAAAAAAAAAAAAAAAAAAAAAAAAAAAAAAAAAAAAAA1111111IIIII
AAAAAAAAAAAAAAAAAAAAAAAAAAAAAAAAAAAAAAAAAAAAAAAAAAAAA1111111IIII
AAAAAAAAAAAAAAAAAAAAAAAAAAAAAAAAAAAAAAAAAAAAAAAAAAAAAA1111111III
AAAAAAAAAAAAAAAAAAAAAAAAAAAAAAAAAAAAAAAAAAAAAAAAAAAAAAA1111111II
AAAAAAAAAAAAAAAAAAAAAAAAAAAAAAAAAAAAAAAAAAAAAAAAAAAAAAAA1111111I
AAAAAAAAAAAAAAAAAAAAAAAAAAAAAAAAAAAAAAAAAAAAAAAAAAAAAAAAA1111111
AAAAAAAAAAAAAAAAAAAAAAAAAAAAAAAAAAAAAAAAAAAAAAAAAAAAAAAAAA111111
AAAAAAAAAAAAAAAAAAAAAAAAAAAAAAAAAAAAAAAAAAAAAAAAAAAAAAAAAAA11111
AAAAAAAAAAAAAAAAAAAAAAAAAAAAAAAAAAAAAAAAAAAAAAAAAAAAAAAAAAAA1111
AAAAAAAAAAAAAAAAAAAAAAAAAAAAAAAAAAAAAAAAAAAAAAAAAAAAAAAAAAAAA111
AAAAAAAAAAAAAAAAAAAAAAAAAAAAAAAAAAAAAAAAAAAAAAAAAAAAAAAAAAAAAA11
AAAAAAAAAAAAAAAAAAAAAAAAAAAAAAAAAAAAAAAAAAAAAAAAAAAAAAAAAAAAAAA1
AAAAAAAAAAAAAAAAAAAAAAAAAAAAAAAAAAAAAAAAAAAAAAAAAAAAAAAAAAAAAAAA
[MLOP] Prefetch Degree Mean: 7.60369
[MLOP] Prefetch Degree SD: 2.47933
[MLOP] Max Score Left Mean (%): 49.2728
[MLOP] Max Score Left SD (%): 21.7429
[MLOP] Max Score Right Mean (%): 84.6341
[MLOP] Max Score Right SD (%): 12.4366
LLC TOTAL     ACCESS:    3660308  HIT:      18605  MISS:    3641703  HIT %:   0.508291  MISS %:    99.4917   MPKI: 18.2085
LLC LOAD      ACCESS:      86676  HIT:      10054  MISS:      76622  HIT %:    11.5995  MISS %:    88.4005   MPKI: 0.38311
LLC RFO       ACCESS:        575  HIT:        548  MISS:         27  HIT %:    95.3043  MISS %:    4.69565   MPKI: 0.000135
LLC PREFETCH  ACCESS:    3556679  HIT:       2065  MISS:    3554614  HIT %:  0.0580598  MISS %:    99.9419   MPKI: 17.7731
LLC WRITEBACK ACCESS:       4934  HIT:       4794  MISS:        140  HIT %:    97.1625  MISS %:    2.83745   MPKI: 0.0007

RAW hits: 2946
Loads Generated: 55596113
Loads sent to L1D: 55593167
Stores Generated: 19411013
Stores sent to L1D: 19411013

CPU 2 cumulative IPC: 0.51245 instructions: 200084739 cycles: 390447384
ITLB TOTAL     ACCESS:   54114098  HIT:   54114098  MISS:          0  HIT %:        100  MISS %:          0   MPKI: 0
ITLB LOAD      ACCESS:          0  HIT:          0  MISS:          0  HIT %:       -nan  MISS %:       -nan   MPKI: 0
ITLB RFO       ACCESS:          0  HIT:          0  MISS:          0  HIT %:       -nan  MISS %:       -nan   MPKI: 0
ITLB PREFETCH  ACCESS:          0  HIT:          0  MISS:          0  HIT %:       -nan  MISS %:       -nan   MPKI: 0
ITLB WRITEBACK ACCESS:          0  HIT:          0  MISS:          0  HIT %:       -nan  MISS %:       -nan   MPKI: 0
DTLB TOTAL     ACCESS:   54986436  HIT:   54920264  MISS:      66172  HIT %:    99.8797  MISS %:   0.120342   MPKI: 0.33072
DTLB LOAD      ACCESS:          0  HIT:          0  MISS:          0  HIT %:       -nan  MISS %:       -nan   MPKI: 0
DTLB RFO       ACCESS:          0  HIT:          0  MISS:          0  HIT %:       -nan  MISS %:       -nan   MPKI: 0
DTLB PREFETCH  ACCESS:          0  HIT:          0  MISS:          0  HIT %:       -nan  MISS %:       -nan   MPKI: 0
DTLB WRITEBACK ACCESS:          0  HIT:          0  MISS:          0  HIT %:       -nan  MISS %:       -nan   MPKI: 0
STLB TOTAL     ACCESS:    3074540  HIT:    3013424  MISS:      61116  HIT %:    98.0122  MISS %:    1.98781   MPKI: 0.305451
STLB LOAD      ACCESS:          0  HIT:          0  MISS:          0  HIT %:       -nan  MISS %:       -nan   MPKI: 0
STLB RFO       ACCESS:          0  HIT:          0  MISS:          0  HIT %:       -nan  MISS %:       -nan   MPKI: 0
STLB PREFETCH  ACCESS:          0  HIT:          0  MISS:          0  HIT %:       -nan  MISS %:       -nan   MPKI: 0
STLB WRITEBACK ACCESS:          0  HIT:          0  MISS:          0  HIT %:       -nan  MISS %:       -nan   MPKI: 0
L1D TOTAL     ACCESS:   61781181  HIT:   56710216  MISS:    5070965  HIT %:    91.7921  MISS %:    8.20794   MPKI: 25.3441
L1D LOAD      ACCESS:   38860296  HIT:   37293058  MISS:    1567238  HIT %:     95.967  MISS %:    4.03301   MPKI: 7.83287
L1D RFO       ACCESS:   19418749  HIT:   19417158  MISS:       1591  HIT %:    99.9918  MISS %: 0.00819311   MPKI: 0.00795163
L1D PREFETCH  ACCESS:    3502136  HIT:          0  MISS:    3502136  HIT %:          0  MISS %:        100   MPKI: 17.5033
L1D WRITEBACK ACCESS:          0  HIT:          0  MISS:          0  HIT %:       -nan  MISS %:       -nan   MPKI: 0
L1I TOTAL     ACCESS:   58038316  HIT:   58038316  MISS:          0  HIT %:        100  MISS %:          0   MPKI: 0
L1I LOAD      ACCESS:   58038316  HIT:   58038316  MISS:          0  HIT %:        100  MISS %:          0   MPKI: 0
L1I RFO       ACCESS:          0  HIT:          0  MISS:          0  HIT %:       -nan  MISS %:       -nan   MPKI: 0
L1I PREFETCH  ACCESS:          0  HIT:          0  MISS:          0  HIT %:       -nan  MISS %:       -nan   MPKI: 0
L1I WRITEBACK ACCESS:          0  HIT:          0  MISS:          0  HIT %:       -nan  MISS %:       -nan   MPKI: 0
L2C TOTAL     ACCESS:    5581635  HIT:    1924288  MISS:    3657347  HIT %:    34.4753  MISS %:    65.5247   MPKI: 18.279
L2C LOAD      ACCESS:    1517560  HIT:    1431315  MISS:      86245  HIT %:    94.3169  MISS %:    5.68314   MPKI: 0.431042
L2C RFO       ACCESS:       1591  HIT:        960  MISS:        631  HIT %:    60.3394  MISS %:    39.6606   MPKI: 0.00315366
L2C PREFETCH  ACCESS:    3989685  HIT:     430674  MISS:    3559011  HIT %:    10.7947  MISS %:    89.2053   MPKI: 17.7875
L2C WRITEBACK ACCESS:      11346  HIT:      11327  MISS:         19  HIT %:    99.8325  MISS %:    0.16746   MPKI: 9.49598e-05
PSCL5 TOTAL     ACCESS:      61116  HIT:      61116  MISS:          0  HIT %:        100  MISS %:          0   MPKI: 0
PSCL5 LOAD      ACCESS:          0  HIT:          0  MISS:          0  HIT %:       -nan  MISS %:       -nan   MPKI: 0
PSCL5 RFO       ACCESS:          0  HIT:          0  MISS:          0  HIT %:       -nan  MISS %:       -nan   MPKI: 0
PSCL5 PREFETCH  ACCESS:          0  HIT:          0  MISS:          0  HIT %:       -nan  MISS %:       -nan   MPKI: 0
PSCL5 WRITEBACK ACCESS:          0  HIT:          0  MISS:          0  HIT %:       -nan  MISS %:       -nan   MPKI: 0
PSCL4 TOTAL     ACCESS:      61116  HIT:      61116  MISS:          0  HIT %:        100  MISS %:          0   MPKI: 0
PSCL4 LOAD      ACCESS:          0  HIT:          0  MISS:          0  HIT %:       -nan  MISS %:       -nan   MPKI: 0
PSCL4 RFO       ACCESS:          0  HIT:          0  MISS:          0  HIT %:       -nan  MISS %:       -nan   MPKI: 0
PSCL4 PREFETCH  ACCESS:          0  HIT:          0  MISS:          0  HIT %:       -nan  MISS %:       -nan   MPKI: 0
PSCL4 WRITEBACK ACCESS:          0  HIT:          0  MISS:          0  HIT %:       -nan  MISS %:       -nan   MPKI: 0
PSCL3 TOTAL     ACCESS:      61116  HIT:      61115  MISS:          1  HIT %:    99.9984  MISS %: 0.00163623   MPKI: 4.99788e-06
PSCL3 LOAD      ACCESS:          0  HIT:          0  MISS:          0  HIT %:       -nan  MISS %:       -nan   MPKI: 0
PSCL3 RFO       ACCESS:          0  HIT:          0  MISS:          0  HIT %:       -nan  MISS %:       -nan   MPKI: 0
PSCL3 PREFETCH  ACCESS:          0  HIT:          0  MISS:          0  HIT %:       -nan  MISS %:       -nan   MPKI: 0
PSCL3 WRITEBACK ACCESS:          0  HIT:          0  MISS:          0  HIT %:       -nan  MISS %:       -nan   MPKI: 0
PSCL2 TOTAL     ACCESS:      61116  HIT:      60374  MISS:        742  HIT %:    98.7859  MISS %:    1.21408   MPKI: 0.00370843
PSCL2 LOAD      ACCESS:          0  HIT:          0  MISS:          0  HIT %:       -nan  MISS %:       -nan   MPKI: 0
PSCL2 RFO       ACCESS:          0  HIT:          0  MISS:          0  HIT %:       -nan  MISS %:       -nan   MPKI: 0
PSCL2 PREFETCH  ACCESS:          0  HIT:          0  MISS:          0  HIT %:       -nan  MISS %:       -nan   MPKI: 0
PSCL2 WRITEBACK ACCESS:          0  HIT:          0  MISS:          0  HIT %:       -nan  MISS %:       -nan   MPKI: 0
=== CPU 2 L1D Prefetcher Statistics ===
[MLOP] History of tracked zone:
IIIIIIIIIIIIIIIIIIIIIIIIIIIIIIIIIIIIIIIIIIIIIIIIIIIIIIIIIIIIIIII
A1111111IIIIIIIIIIIIIIIIIIIIIIIIIIIIIIIIIIIIIIIIIIIIIIIIIIIIIIII
AA1111111IIIIIIIIIIIIIIIIIIIIIIIIIIIIIIIIIIIIIIIIIIIIIIIIIIIIIII
AAA1111111IIIIIIIIIIIIIIIIIIIIIIIIIIIIIIIIIIIIIIIIIIIIIIIIIIIIII
AAAA1111111IIIIIIIIIIIIIIIIIIIIIIIIIIIIIIIIIIIIIIIIIIIIIIIIIIIII
AAAAA1111111IIIIIIIIIIIIIIIIIIIIIIIIIIIIIIIIIIIIIIIIIIIIIIIIIIII
AAAAAA1111111IIIIIIIIIIIIIIIIIIIIIIIIIIIIIIIIIIIIIIIIIIIIIIIIIII
AAAAAAA1111111IIIIIIIIIIIIIIIIIIIIIIIIIIIIIIIIIIIIIIIIIIIIIIIIII
AAAAAAAA1111111IIIIIIIIIIIIIIIIIIIIIIIIIIIIIIIIIIIIIIIIIIIIIIIII
AAAAAAAAA1111111IIIIIIIIIIIIIIIIIIIIIIIIIIIIIIIIIIIIIIIIIIIIIIII
AAAAAAAAAA1111111IIIIIIIIIIIIIIIIIIIIIIIIIIIIIIIIIIIIIIIIIIIIIII
AAAAAAAAAAA1111111IIIIIIIIIIIIIIIIIIIIIIIIIIIIIIIIIIIIIIIIIIIIII
AAAAAAAAAAAA1111111IIIIIIIIIIIIIIIIIIIIIIIIIIIIIIIIIIIIIIIIIIIII
AAAAAAAAAAAAA1111111IIIIIIIIIIIIIIIIIIIIIIIIIIIIIIIIIIIIIIIIIIII
AAAAAAAAAAAAAA1111111IIIIIIIIIIIIIIIIIIIIIIIIIIIIIIIIIIIIIIIIIII
AAAAAAAAAAAAAAA1111111IIIIIIIIIIIIIIIIIIIIIIIIIIIIIIIIIIIIIIIIII
AAAAAAAAAAAAAAAA1111111IIIIIIIIIIIIIIIIIIIIIIIIIIIIIIIIIIIIIIIII
AAAAAAAAAAAAAAAAA1111111IIIIIIIIIIIIIIIIIIIIIIIIIIIIIIIIIIIIIIII
AAAAAAAAAAAAAAAAAA1111111IIIIIIIIIIIIIIIIIIIIIIIIIIIIIIIIIIIIIII
AAAAAAAAAAAAAAAAAAA1111111IIIIIIIIIIIIIIIIIIIIIIIIIIIIIIIIIIIIII
AAAAAAAAAAAAAAAAAAAA1111111IIIIIIIIIIIIIIIIIIIIIIIIIIIIIIIIIIIII
AAAAAAAAAAAAAAAAAAAAA1111111IIIIIIIIIIIIIIIIIIIIIIIIIIIIIIIIIIII
AAAAAAAAAAAAAAAAAAAAAA1111111IIIIIIIIIIIIIIIIIIIIIIIIIIIIIIIIIII
AAAAAAAAAAAAAAAAAAAAAAA1111111IIIIIIIIIIIIIIIIIIIIIIIIIIIIIIIIII
AAAAAAAAAAAAAAAAAAAAAAAA1111111IIIIIIIIIIIIIIIIIIIIIIIIIIIIIIIII
AAAAAAAAAAAAAAAAAAAAAAAAA1111111IIIIIIIIIIIIIIIIIIIIIIIIIIIIIIII
AAAAAAAAAAAAAAAAAAAAAAAAAA1111111IIIIIIIIIIIIIIIIIIIIIIIIIIIIIII
AAAAAAAAAAAAAAAAAAAAAAAAAAA1111111IIIIIIIIIIIIIIIIIIIIIIIIIIIIII
AAAAAAAAAAAAAAAAAAAAAAAAAAAA1111111IIIIIIIIIIIIIIIIIIIIIIIIIIIII
AAAAAAAAAAAAAAAAAAAAAAAAAAAAA1111111IIIIIIIIIIIIIIIIIIIIIIIIIIII
AAAAAAAAAAAAAAAAAAAAAAAAAAAAAA1111111IIIIIIIIIIIIIIIIIIIIIIIIIII
AAAAAAAAAAAAAAAAAAAAAAAAAAAAAAA1111111IIIIIIIIIIIIIIIIIIIIIIIIII
AAAAAAAAAAAAAAAAAAAAAAAAAAAAAAAA1111111IIIIIIIIIIIIIIIIIIIIIIIII
AAAAAAAAAAAAAAAAAAAAAAAAAAAAAAAAA1111111IIIIIIIIIIIIIIIIIIIIIIII
AAAAAAAAAAAAAAAAAAAAAAAAAAAAAAAAAA1111111IIIIIIIIIIIIIIIIIIIIIII
AAAAAAAAAAAAAAAAAAAAAAAAAAAAAAAAAAA1111111IIIIIIIIIIIIIIIIIIIIII
AAAAAAAAAAAAAAAAAAAAAAAAAAAAAAAAAAAA1111111IIIIIIIIIIIIIIIIIIIII
AAAAAAAAAAAAAAAAAAAAAAAAAAAAAAAAAAAAA1111111IIIIIIIIIIIIIIIIIIII
AAAAAAAAAAAAAAAAAAAAAAAAAAAAAAAAAAAAAA1111111IIIIIIIIIIIIIIIIIII
AAAAAAAAAAAAAAAAAAAAAAAAAAAAAAAAAAAAAAA1111111IIIIIIIIIIIIIIIIII
AAAAAAAAAAAAAAAAAAAAAAAAAAAAAAAAAAAAAAAA1111111IIIIIIIIIIIIIIIII
AAAAAAAAAAAAAAAAAAAAAAAAAAAAAAAAAAAAAAAAA1111111IIIIIIIIIIIIIIII
AAAAAAAAAAAAAAAAAAAAAAAAAAAAAAAAAAAAAAAAAA1111111IIIIIIIIIIIIIII
AAAAAAAAAAAAAAAAAAAAAAAAAAAAAAAAAAAAAAAAAAA1111111IIIIIIIIIIIIII
AAAAAAAAAAAAAAAAAAAAAAAAAAAAAAAAAAAAAAAAAAAA1111111IIIIIIIIIIIII
AAAAAAAAAAAAAAAAAAAAAAAAAAAAAAAAAAAAAAAAAAAAA1111111IIIIIIIIIIII
AAAAAAAAAAAAAAAAAAAAAAAAAAAAAAAAAAAAAAAAAAAAAA1111111IIIIIIIIIII
AAAAAAAAAAAAAAAAAAAAAAAAAAAAAAAAAAAAAAAAAAAAAAA1111111IIIIIIIIII
AAAAAAAAAAAAAAAAAAAAAAAAAAAAAAAAAAAAAAAAAAAAAAAA1111111IIIIIIIII
AAAAAAAAAAAAAAAAAAAAAAAAAAAAAAAAAAAAAAAAAAAAAAAAA1111111IIIIIIII
AAAAAAAAAAAAAAAAAAAAAAAAAAAAAAAAAAAAAAAAAAAAAAAAAA1111111IIIIIII
AAAAAAAAAAAAAAAAAAAAAAAAAAAAAAAAAAAAAAAAAAAAAAAAAAA1111111IIIIII
AAAAAAAAAAAAAAAAAAAAAAAAAAAAAAAAAAAAAAAAAAAAAAAAAAAA1111111IIIII
AAAAAAAAAAAAAAAAAAAAAAAAAAAAAAAAAAAAAAAAAAAAAAAAAAAAA1111111IIII
AAAAAAAAAAAAAAAAAAAAAAAAAAAAAAAAAAAAAAAAAAAAAAAAAAAAAA1111111III
AAAAAAAAAAAAAAAAAAAAAAAAAAAAAAAAAAAAAAAAAAAAAAAAAAAAAAA1111111II
AAAAAAAAAAAAAAAAAAAAAAAAAAAAAAAAAAAAAAAAAAAAAAAAAAAAAAAA1111111I
AAAAAAAAAAAAAAAAAAAAAAAAAAAAAAAAAAAAAAAAAAAAAAAAAAAAAAAAA1111111
AAAAAAAAAAAAAAAAAAAAAAAAAAAAAAAAAAAAAAAAAAAAAAAAAAAAAAAAAA111111
AAAAAAAAAAAAAAAAAAAAAAAAAAAAAAAAAAAAAAAAAAAAAAAAAAAAAAAAAAA11111
AAAAAAAAAAAAAAAAAAAAAAAAAAAAAAAAAAAAAAAAAAAAAAAAAAAAAAAAAAAA1111
AAAAAAAAAAAAAAAAAAAAAAAAAAAAAAAAAAAAAAAAAAAAAAAAAAAAAAAAAAAAA111
AAAAAAAAAAAAAAAAAAAAAAAAAAAAAAAAAAAAAAAAAAAAAAAAAAAAAAAAAAAAAA11
AAAAAAAAAAAAAAAAAAAAAAAAAAAAAAAAAAAAAAAAAAAAAAAAAAAAAAAAAAAAAAA1
AAAAAAAAAAAAAAAAAAAAAAAAAAAAAAAAAAAAAAAAAAAAAAAAAAAAAAAAAAAAAAAA
[MLOP] Prefetch Degree Mean: 7.6729
[MLOP] Prefetch Degree SD: 2.54042
[MLOP] Max Score Left Mean (%): 48.8514
[MLOP] Max Score Left SD (%): 21.3716
[MLOP] Max Score Right Mean (%): 84.4439
[MLOP] Max Score Right SD (%): 12.0165
LLC TOTAL     ACCESS:    3662272  HIT:      18002  MISS:    3644270  HIT %:   0.491553  MISS %:    99.5084   MPKI: 18.2136
LLC LOAD      ACCESS:      86209  HIT:       9728  MISS:      76481  HIT %:    11.2842  MISS %:    88.7158   MPKI: 0.382243
LLC RFO       ACCESS:        631  HIT:        603  MISS:         28  HIT %:    95.5626  MISS %:     4.4374   MPKI: 0.000139941
LLC PREFETCH  ACCESS:    3559047  HIT:       1742  MISS:    3557305  HIT %:  0.0489457  MISS %:    99.9511   MPKI: 17.779
LLC WRITEBACK ACCESS:       4944  HIT:       4841  MISS:        103  HIT %:    97.9167  MISS %:    2.08333   MPKI: 0.000514782

RAW hits: 2806
Loads Generated: 55619628
Loads sent to L1D: 55616822
Stores Generated: 19419247
Stores sent to L1D: 19419248

CPU 3 cumulative IPC: 0.512321 instructions: 200034442 cycles: 390447384
ITLB TOTAL     ACCESS:   54100858  HIT:   54100858  MISS:          0  HIT %:        100  MISS %:          0   MPKI: 0
ITLB LOAD      ACCESS:          0  HIT:          0  MISS:          0  HIT %:       -nan  MISS %:       -nan   MPKI: 0
ITLB RFO       ACCESS:          0  HIT:          0  MISS:          0  HIT %:       -nan  MISS %:       -nan   MPKI: 0
ITLB PREFETCH  ACCESS:          0  HIT:          0  MISS:          0  HIT %:       -nan  MISS %:       -nan   MPKI: 0
ITLB WRITEBACK ACCESS:          0  HIT:          0  MISS:          0  HIT %:       -nan  MISS %:       -nan   MPKI: 0
DTLB TOTAL     ACCESS:   54972756  HIT:   54906607  MISS:      66149  HIT %:    99.8797  MISS %:   0.120331   MPKI: 0.330688
DTLB LOAD      ACCESS:          0  HIT:          0  MISS:          0  HIT %:       -nan  MISS %:       -nan   MPKI: 0
DTLB RFO       ACCESS:          0  HIT:          0  MISS:          0  HIT %:       -nan  MISS %:       -nan   MPKI: 0
DTLB PREFETCH  ACCESS:          0  HIT:          0  MISS:          0  HIT %:       -nan  MISS %:       -nan   MPKI: 0
DTLB WRITEBACK ACCESS:          0  HIT:          0  MISS:          0  HIT %:       -nan  MISS %:       -nan   MPKI: 0
STLB TOTAL     ACCESS:    3075884  HIT:    3014783  MISS:      61101  HIT %:    98.0135  MISS %:    1.98645   MPKI: 0.305452
STLB LOAD      ACCESS:          0  HIT:          0  MISS:          0  HIT %:       -nan  MISS %:       -nan   MPKI: 0
STLB RFO       ACCESS:          0  HIT:          0  MISS:          0  HIT %:       -nan  MISS %:       -nan   MPKI: 0
STLB PREFETCH  ACCESS:          0  HIT:          0  MISS:          0  HIT %:       -nan  MISS %:       -nan   MPKI: 0
STLB WRITEBACK ACCESS:          0  HIT:          0  MISS:          0  HIT %:       -nan  MISS %:       -nan   MPKI: 0
L1D TOTAL     ACCESS:   61766638  HIT:   56697948  MISS:    5068690  HIT %:    91.7938  MISS %:    8.20619   MPKI: 25.3391
L1D LOAD      ACCESS:   38850635  HIT:   37285734  MISS:    1564901  HIT %:     95.972  MISS %:    4.02799   MPKI: 7.82316
L1D RFO       ACCESS:   19413808  HIT:   19412214  MISS:       1594  HIT %:    99.9918  MISS %: 0.00821065   MPKI: 0.00796863
L1D PREFETCH  ACCESS:    3502195  HIT:          0  MISS:    3502195  HIT %:          0  MISS %:        100   MPKI: 17.508
L1D WRITEBACK ACCESS:          0  HIT:          0  MISS:          0  HIT %:       -nan  MISS %:       -nan   MPKI: 0
L1I TOTAL     ACCESS:   58024088  HIT:   58024088  MISS:          0  HIT %:        100  MISS %:          0   MPKI: 0
L1I LOAD      ACCESS:   58024088  HIT:   58024088  MISS:          0  HIT %:        100  MISS %:          0   MPKI: 0
L1I RFO       ACCESS:          0  HIT:          0  MISS:          0  HIT %:       -nan  MISS %:       -nan   MPKI: 0
L1I PREFETCH  ACCESS:          0  HIT:          0  MISS:          0  HIT %:       -nan  MISS %:       -nan   MPKI: 0
L1I WRITEBACK ACCESS:          0  HIT:          0  MISS:          0  HIT %:       -nan  MISS %:       -nan   MPKI: 0
L2C TOTAL     ACCESS:    5552593  HIT:    1896072  MISS:    3656521  HIT %:    34.1475  MISS %:    65.8525   MPKI: 18.2795
L2C LOAD      ACCESS:    1516379  HIT:    1429096  MISS:      87283  HIT %:     94.244  MISS %:    5.75601   MPKI: 0.43634
L2C RFO       ACCESS:       1594  HIT:        980  MISS:        614  HIT %:    61.4806  MISS %:    38.5194   MPKI: 0.00306947
L2C PREFETCH  ACCESS:    3961840  HIT:     404700  MISS:    3557140  HIT %:     10.215  MISS %:     89.785   MPKI: 17.7826
L2C WRITEBACK ACCESS:      11343  HIT:      11313  MISS:         30  HIT %:    99.7355  MISS %:    0.26448   MPKI: 0.000149974
PSCL5 TOTAL     ACCESS:      61101  HIT:      61101  MISS:          0  HIT %:        100  MISS %:          0   MPKI: 0
PSCL5 LOAD      ACCESS:          0  HIT:          0  MISS:          0  HIT %:       -nan  MISS %:       -nan   MPKI: 0
PSCL5 RFO       ACCESS:          0  HIT:          0  MISS:          0  HIT %:       -nan  MISS %:       -nan   MPKI: 0
PSCL5 PREFETCH  ACCESS:          0  HIT:          0  MISS:          0  HIT %:       -nan  MISS %:       -nan   MPKI: 0
PSCL5 WRITEBACK ACCESS:          0  HIT:          0  MISS:          0  HIT %:       -nan  MISS %:       -nan   MPKI: 0
PSCL4 TOTAL     ACCESS:      61101  HIT:      61101  MISS:          0  HIT %:        100  MISS %:          0   MPKI: 0
PSCL4 LOAD      ACCESS:          0  HIT:          0  MISS:          0  HIT %:       -nan  MISS %:       -nan   MPKI: 0
PSCL4 RFO       ACCESS:          0  HIT:          0  MISS:          0  HIT %:       -nan  MISS %:       -nan   MPKI: 0
PSCL4 PREFETCH  ACCESS:          0  HIT:          0  MISS:          0  HIT %:       -nan  MISS %:       -nan   MPKI: 0
PSCL4 WRITEBACK ACCESS:          0  HIT:          0  MISS:          0  HIT %:       -nan  MISS %:       -nan   MPKI: 0
PSCL3 TOTAL     ACCESS:      61101  HIT:      61100  MISS:          1  HIT %:    99.9984  MISS %: 0.00163663   MPKI: 4.99914e-06
PSCL3 LOAD      ACCESS:          0  HIT:          0  MISS:          0  HIT %:       -nan  MISS %:       -nan   MPKI: 0
PSCL3 RFO       ACCESS:          0  HIT:          0  MISS:          0  HIT %:       -nan  MISS %:       -nan   MPKI: 0
PSCL3 PREFETCH  ACCESS:          0  HIT:          0  MISS:          0  HIT %:       -nan  MISS %:       -nan   MPKI: 0
PSCL3 WRITEBACK ACCESS:          0  HIT:          0  MISS:          0  HIT %:       -nan  MISS %:       -nan   MPKI: 0
PSCL2 TOTAL     ACCESS:      61101  HIT:      60360  MISS:        741  HIT %:    98.7873  MISS %:    1.21275   MPKI: 0.00370436
PSCL2 LOAD      ACCESS:          0  HIT:          0  MISS:          0  HIT %:       -nan  MISS %:       -nan   MPKI: 0
PSCL2 RFO       ACCESS:          0  HIT:          0  MISS:          0  HIT %:       -nan  MISS %:       -nan   MPKI: 0
PSCL2 PREFETCH  ACCESS:          0  HIT:          0  MISS:          0  HIT %:       -nan  MISS %:       -nan   MPKI: 0
PSCL2 WRITEBACK ACCESS:          0  HIT:          0  MISS:          0  HIT %:       -nan  MISS %:       -nan   MPKI: 0
=== CPU 3 L1D Prefetcher Statistics ===
[MLOP] History of tracked zone:
IIIIIIIIIIIIIIIIIIIIIIIIIIIIIIIIIIIIIIIIIIIIIIIIIIIIIIIIIIIIIIII
A1111111IIIIIIIIIIIIIIIIIIIIIIIIIIIIIIIIIIIIIIIIIIIIIIIIIIIIIIII
AA1111111IIIIIIIIIIIIIIIIIIIIIIIIIIIIIIIIIIIIIIIIIIIIIIIIIIIIIII
AAA1111111IIIIIIIIIIIIIIIIIIIIIIIIIIIIIIIIIIIIIIIIIIIIIIIIIIIIII
AAAA1111111IIIIIIIIIIIIIIIIIIIIIIIIIIIIIIIIIIIIIIIIIIIIIIIIIIIII
AAAAA1111111IIIIIIIIIIIIIIIIIIIIIIIIIIIIIIIIIIIIIIIIIIIIIIIIIIII
AAAAAA1111111IIIIIIIIIIIIIIIIIIIIIIIIIIIIIIIIIIIIIIIIIIIIIIIIIII
AAAAAAA1111111IIIIIIIIIIIIIIIIIIIIIIIIIIIIIIIIIIIIIIIIIIIIIIIIII
AAAAAAAA1111111IIIIIIIIIIIIIIIIIIIIIIIIIIIIIIIIIIIIIIIIIIIIIIIII
AAAAAAAAA1111111IIIIIIIIIIIIIIIIIIIIIIIIIIIIIIIIIIIIIIIIIIIIIIII
AAAAAAAAAA1111111IIIIIIIIIIIIIIIIIIIIIIIIIIIIIIIIIIIIIIIIIIIIIII
AAAAAAAAAAA1111111IIIIIIIIIIIIIIIIIIIIIIIIIIIIIIIIIIIIIIIIIIIIII
AAAAAAAAAAAA1111111IIIIIIIIIIIIIIIIIIIIIIIIIIIIIIIIIIIIIIIIIIIII
AAAAAAAAAAAAA1111111IIIIIIIIIIIIIIIIIIIIIIIIIIIIIIIIIIIIIIIIIIII
AAAAAAAAAAAAAA1111111IIIIIIIIIIIIIIIIIIIIIIIIIIIIIIIIIIIIIIIIIII
AAAAAAAAAAAAAAA1111111IIIIIIIIIIIIIIIIIIIIIIIIIIIIIIIIIIIIIIIIII
AAAAAAAAAAAAAAAA1111111IIIIIIIIIIIIIIIIIIIIIIIIIIIIIIIIIIIIIIIII
AAAAAAAAAAAAAAAAA1111111IIIIIIIIIIIIIIIIIIIIIIIIIIIIIIIIIIIIIIII
AAAAAAAAAAAAAAAAAA1111111IIIIIIIIIIIIIIIIIIIIIIIIIIIIIIIIIIIIIII
AAAAAAAAAAAAAAAAAAA1111111IIIIIIIIIIIIIIIIIIIIIIIIIIIIIIIIIIIIII
AAAAAAAAAAAAAAAAAAAA1111111IIIIIIIIIIIIIIIIIIIIIIIIIIIIIIIIIIIII
AAAAAAAAAAAAAAAAAAAAA1111111IIIIIIIIIIIIIIIIIIIIIIIIIIIIIIIIIIII
AAAAAAAAAAAAAAAAAAAAAA1111111IIIIIIIIIIIIIIIIIIIIIIIIIIIIIIIIIII
AAAAAAAAAAAAAAAAAAAAAAA1111111IIIIIIIIIIIIIIIIIIIIIIIIIIIIIIIIII
AAAAAAAAAAAAAAAAAAAAAAAA1111111IIIIIIIIIIIIIIIIIIIIIIIIIIIIIIIII
AAAAAAAAAAAAAAAAAAAAAAAAA1111111IIIIIIIIIIIIIIIIIIIIIIIIIIIIIIII
AAAAAAAAAAAAAAAAAAAAAAAAAA1111111IIIIIIIIIIIIIIIIIIIIIIIIIIIIIII
AAAAAAAAAAAAAAAAAAAAAAAAAAA1111111IIIIIIIIIIIIIIIIIIIIIIIIIIIIII
AAAAAAAAAAAAAAAAAAAAAAAAAAAA1111111IIIIIIIIIIIIIIIIIIIIIIIIIIIII
AAAAAAAAAAAAAAAAAAAAAAAAAAAAA1111111IIIIIIIIIIIIIIIIIIIIIIIIIIII
AAAAAAAAAAAAAAAAAAAAAAAAAAAAAA1111111IIIIIIIIIIIIIIIIIIIIIIIIIII
AAAAAAAAAAAAAAAAAAAAAAAAAAAAAAA1111111IIIIIIIIIIIIIIIIIIIIIIIIII
AAAAAAAAAAAAAAAAAAAAAAAAAAAAAAAA1111111IIIIIIIIIIIIIIIIIIIIIIIII
AAAAAAAAAAAAAAAAAAAAAAAAAAAAAAAAA1111111IIIIIIIIIIIIIIIIIIIIIIII
AAAAAAAAAAAAAAAAAAAAAAAAAAAAAAAAAA1111111IIIIIIIIIIIIIIIIIIIIIII
AAAAAAAAAAAAAAAAAAAAAAAAAAAAAAAAAAA1111111IIIIIIIIIIIIIIIIIIIIII
AAAAAAAAAAAAAAAAAAAAAAAAAAAAAAAAAAAA1111111IIIIIIIIIIIIIIIIIIIII
AAAAAAAAAAAAAAAAAAAAAAAAAAAAAAAAAAAAA1111111IIIIIIIIIIIIIIIIIIII
AAAAAAAAAAAAAAAAAAAAAAAAAAAAAAAAAAAAAA1111111IIIIIIIIIIIIIIIIIII
AAAAAAAAAAAAAAAAAAAAAAAAAAAAAAAAAAAAAAA1111111IIIIIIIIIIIIIIIIII
AAAAAAAAAAAAAAAAAAAAAAAAAAAAAAAAAAAAAAAA1111111IIIIIIIIIIIIIIIII
AAAAAAAAAAAAAAAAAAAAAAAAAAAAAAAAAAAAAAAAA1111111IIIIIIIIIIIIIIII
AAAAAAAAAAAAAAAAAAAAAAAAAAAAAAAAAAAAAAAAAA1111111IIIIIIIIIIIIIII
AAAAAAAAAAAAAAAAAAAAAAAAAAAAAAAAAAAAAAAAAAA1111111IIIIIIIIIIIIII
AAAAAAAAAAAAAAAAAAAAAAAAAAAAAAAAAAAAAAAAAAAA1111111IIIIIIIIIIIII
AAAAAAAAAAAAAAAAAAAAAAAAAAAAAAAAAAAAAAAAAAAAA1111111IIIIIIIIIIII
AAAAAAAAAAAAAAAAAAAAAAAAAAAAAAAAAAAAAAAAAAAAAA1111111IIIIIIIIIII
AAAAAAAAAAAAAAAAAAAAAAAAAAAAAAAAAAAAAAAAAAAAAAA1111111IIIIIIIIII
AAAAAAAAAAAAAAAAAAAAAAAAAAAAAAAAAAAAAAAAAAAAAAAA1111111IIIIIIIII
AAAAAAAAAAAAAAAAAAAAAAAAAAAAAAAAAAAAAAAAAAAAAAAAA1111111IIIIIIII
AAAAAAAAAAAAAAAAAAAAAAAAAAAAAAAAAAAAAAAAAAAAAAAAAA1111111IIIIIII
AAAAAAAAAAAAAAAAAAAAAAAAAAAAAAAAAAAAAAAAAAAAAAAAAAA1111111IIIIII
AAAAAAAAAAAAAAAAAAAAAAAAAAAAAAAAAAAAAAAAAAAAAAAAAAAA1111111IIIII
AAAAAAAAAAAAAAAAAAAAAAAAAAAAAAAAAAAAAAAAAAAAAAAAAAAAA1111111IIII
AAAAAAAAAAAAAAAAAAAAAAAAAAAAAAAAAAAAAAAAAAAAAAAAAAAAAA1111111III
AAAAAAAAAAAAAAAAAAAAAAAAAAAAAAAAAAAAAAAAAAAAAAAAAAAAAAA1111111II
AAAAAAAAAAAAAAAAAAAAAAAAAAAAAAAAAAAAAAAAAAAAAAAAAAAAAAAA1111111I
AAAAAAAAAAAAAAAAAAAAAAAAAAAAAAAAAAAAAAAAAAAAAAAAAAAAAAAAA1111111
AAAAAAAAAAAAAAAAAAAAAAAAAAAAAAAAAAAAAAAAAAAAAAAAAAAAAAAAAA111111
AAAAAAAAAAAAAAAAAAAAAAAAAAAAAAAAAAAAAAAAAAAAAAAAAAAAAAAAAAA11111
AAAAAAAAAAAAAAAAAAAAAAAAAAAAAAAAAAAAAAAAAAAAAAAAAAAAAAAAAAAA1111
AAAAAAAAAAAAAAAAAAAAAAAAAAAAAAAAAAAAAAAAAAAAAAAAAAAAAAAAAAAAA111
AAAAAAAAAAAAAAAAAAAAAAAAAAAAAAAAAAAAAAAAAAAAAAAAAAAAAAAAAAAAAA11
AAAAAAAAAAAAAAAAAAAAAAAAAAAAAAAAAAAAAAAAAAAAAAAAAAAAAAAAAAAAAAA1
AAAAAAAAAAAAAAAAAAAAAAAAAAAAAAAAAAAAAAAAAAAAAAAAAAAAAAAAAAAAAAAA
[MLOP] Prefetch Degree Mean: 7.87805
[MLOP] Prefetch Degree SD: 2.44346
[MLOP] Max Score Left Mean (%): 49.8263
[MLOP] Max Score Left SD (%): 20.3071
[MLOP] Max Score Right Mean (%): 84.3229
[MLOP] Max Score Right SD (%): 11.7869
LLC TOTAL     ACCESS:    3661437  HIT:      18045  MISS:    3643392  HIT %:   0.492839  MISS %:    99.5072   MPKI: 18.2138
LLC LOAD      ACCESS:      87277  HIT:       9975  MISS:      77302  HIT %:    11.4291  MISS %:    88.5709   MPKI: 0.386443
LLC RFO       ACCESS:        614  HIT:        587  MISS:         27  HIT %:    95.6026  MISS %:    4.39739   MPKI: 0.000134977
LLC PREFETCH  ACCESS:    3557146  HIT:       1520  MISS:    3555626  HIT %:  0.0427309  MISS %:    99.9573   MPKI: 17.7751
LLC WRITEBACK ACCESS:       4946  HIT:       4824  MISS:        122  HIT %:    97.5334  MISS %:    2.46664   MPKI: 0.000609895

RAW hits: 3010
Loads Generated: 55605685
Loads sent to L1D: 55602675
Stores Generated: 19414338
Stores sent to L1D: 19414338

Region of Interest Statistics

CPU 0 cumulative IPC: 0.512341 instructions: 200000000 cycles: 390365205
ITLB TOTAL     ACCESS:   54091384  HIT:   54091384  MISS:          0  HIT %:        100  MISS %:          0   MPKI: 0
ITLB LOAD TRANSLATION ACCESS:   54091384  HIT:   54091384  MISS:          0  HIT %:        100  MISS %:          0   MPKI: 0
ITLB PREFETCH  REQUESTED:          0  ISSUED:          0  USEFUL:          0  USELESS:          0
ITLB USEFUL LOAD PREFETCHES:          0 PREFETCH ISSUED TO LOWER LEVEL:          0  ACCURACY: -nan
ITLB TIMELY PREFETCHES:          0 LATE PREFETCHES: 0 DROPPED PREFETCHES: 0
ITLB PREFETCHES SAME FILL-ORIGIN LEVEL: 0 DIFFERENT FILL-ORIGIN LEVEL: 0
ITLB AVERAGE MISS LATENCY: -nan cycles
ITLB RQ	ACCESS:   58026547	FORWARD:          0	MERGED:    3923471	TO_CACHE:   54103076

DTLB TOTAL     ACCESS:   54963883  HIT:   54897746  MISS:      66137  HIT %:    99.8797  MISS %:   0.120328   MPKI: 0.330685
DTLB LOAD TRANSLATION ACCESS:   54963883  HIT:   54897746  MISS:      66137  HIT %:    99.8797  MISS %:   0.120328   MPKI: 0.330685
DTLB PREFETCH  REQUESTED:          0  ISSUED:          0  USEFUL:          0  USELESS:          0
DTLB USEFUL LOAD PREFETCHES:          0 PREFETCH ISSUED TO LOWER LEVEL:          0  ACCURACY: -nan
DTLB TIMELY PREFETCHES:          0 LATE PREFETCHES: 0 DROPPED PREFETCHES: 0
DTLB PREFETCHES SAME FILL-ORIGIN LEVEL: 0 DIFFERENT FILL-ORIGIN LEVEL: 0
DTLB AVERAGE MISS LATENCY: 147.517 cycles
DTLB RQ	ACCESS:   58301296	FORWARD:          0	MERGED:    3323070	TO_CACHE:   54978226

STLB TOTAL     ACCESS:    3099591  HIT:    3038506  MISS:      61085  HIT %:    98.0293  MISS %:    1.97074   MPKI: 0.305425
STLB LOAD TRANSLATION ACCESS:      66137  HIT:       5085  MISS:      61052  HIT %:    7.68859  MISS %:    92.3114   MPKI: 0.30526
STLB TRANSLATION FROM L1D PREFETCHER ACCESS:    3033454  HIT:    3033421  MISS:         33  HIT %:    99.9989  MISS %: 0.00108787   MPKI: 0.000165
STLB PREFETCH  REQUESTED:          0  ISSUED:          0  USEFUL:         19  USELESS:         14
STLB USEFUL LOAD PREFETCHES:         19 PREFETCH ISSUED TO LOWER LEVEL:          0  ACCURACY: inf
STLB TIMELY PREFETCHES:         19 LATE PREFETCHES: 0 DROPPED PREFETCHES: 0
STLB PREFETCHES SAME FILL-ORIGIN LEVEL: 0 DIFFERENT FILL-ORIGIN LEVEL: 0
STLB AVERAGE MISS LATENCY: 150.123 cycles
STLB RQ	ACCESS:    4515561	FORWARD:          0	MERGED:    1415257	TO_CACHE:    3100304

STLB Hit, L1D data hit: 0
STLB Hit, L2C data hit: 0
STLB Hit, LLC data hit: 0
STLB Hit, LLC data miss: 0
STLB STLB hints to L2: 0
L1D TOTAL     ACCESS:   61751883  HIT:   56693821  MISS:    5058062  HIT %:    91.8091  MISS %:    8.19094   MPKI: 25.2903
L1D LOAD      ACCESS:   38843767  HIT:   37284888  MISS:    1558879  HIT %:    95.9868  MISS %:     4.0132   MPKI: 7.79439
L1D RFO       ACCESS:   19410524  HIT:   19408933  MISS:       1591  HIT %:    99.9918  MISS %: 0.00819658   MPKI: 0.007955
L1D PREFETCH  ACCESS:    3497592  HIT:          0  MISS:    3497592  HIT %:          0  MISS %:        100   MPKI: 17.488
L1D PREFETCH  REQUESTED:    8899524  ISSUED:    8899524  USEFUL:    3409158  USELESS:      89240
L1D USEFUL LOAD PREFETCHES:    3409158 PREFETCH ISSUED TO LOWER LEVEL:    4446842  ACCURACY: 76.6647
L1D TIMELY PREFETCHES:    3409158 LATE PREFETCHES: 49301 DROPPED PREFETCHES: 0
L1D PREFETCHES SAME FILL-ORIGIN LEVEL: 3547705 DIFFERENT FILL-ORIGIN LEVEL: 899137
L1D AVERAGE MISS LATENCY: 90.697 cycles
L1D RQ	ACCESS:   55605397	FORWARD:          0	MERGED:   16718667	TO_CACHE:   38886715
L1D WQ	ACCESS:   19415069	FORWARD:         15	MERGED:        488	TO_CACHE:   19414581
L1D PQ	ACCESS:    4450116	FORWARD:          0	MERGED:        708	TO_CACHE:    4449408

L1D UNIQUE REGIONS ACCESSED: 0
L1D REGIONS CONFLICTS: 0
L1D Cross Page Prefetch Requests: 0
L1D Same Page Prefetch Requests: 5336884
L1D ROI Sum of L1D PQ occupancy: 50696689
L1D PREFETCHES PUSHED FROM L2C: 0
L1I TOTAL     ACCESS:   58014042  HIT:   58014042  MISS:          0  HIT %:        100  MISS %:          0   MPKI: 0
L1I LOAD      ACCESS:   58014042  HIT:   58014042  MISS:          0  HIT %:        100  MISS %:          0   MPKI: 0
L1I PREFETCH  REQUESTED:          0  ISSUED:          0  USEFUL:          0  USELESS:          0
L1I USEFUL LOAD PREFETCHES:          0 PREFETCH ISSUED TO LOWER LEVEL:          0  ACCURACY: -nan
L1I TIMELY PREFETCHES:          0 LATE PREFETCHES: 0 DROPPED PREFETCHES: 0
L1I PREFETCHES SAME FILL-ORIGIN LEVEL: 0 DIFFERENT FILL-ORIGIN LEVEL: 0
L1I AVERAGE MISS LATENCY: -nan cycles
L1I RQ	ACCESS:   79149744	FORWARD:          0	MERGED:   21123197	TO_CACHE:   58026547

BTB TOTAL     ACCESS:   32765971  HIT:   32765952  MISS:         19  HIT %:    99.9999  MISS %: 5.7987e-05   MPKI: 9.5e-05
BTB BRANCH_DIRECT_JUMP	ACCESS:    4318202  HIT:    4318195  MISS:          7
BTB BRANCH_INDIRECT	ACCESS:          0  HIT:          0  MISS:          0
BTB BRANCH_CONDITIONAL	ACCESS:   24127040  HIT:   24127032  MISS:          8
BTB BRANCH_DIRECT_CALL	ACCESS:    2160365  HIT:    2160363  MISS:          2
BTB BRANCH_INDIRECT_CALL	ACCESS:          0  HIT:          0  MISS:          0
BTB BRANCH_RETURN	ACCESS:    2160364  HIT:    2160362  MISS:          2
BTB BRANCH_OTHER ACCESS:          0  HIT:          0  MISS:          0

L2C TOTAL     ACCESS:    5857442  HIT:    2201389  MISS:    3656053  HIT %:    37.5828  MISS %:    62.4172   MPKI: 18.2803
L2C LOAD      ACCESS:    1509583  HIT:    1423124  MISS:      86459  HIT %:    94.2727  MISS %:    5.72734   MPKI: 0.432295
L2C DATA LOAD MPKI: 0.432295
L2C INSTRUCTION LOAD MPKI: 0
L2C RFO       ACCESS:       1591  HIT:       1026  MISS:        565  HIT %:    64.4877  MISS %:    35.5123   MPKI: 0.002825
L2C PREFETCH  ACCESS:    4273566  HIT:     715996  MISS:    3557570  HIT %:    16.7541  MISS %:    83.2459   MPKI: 17.7878
L2C DATA PREFETCH MPKI: 17.7878
L2C INSTRUCTION PREFETCH MPKI: 0
L2C WRITEBACK ACCESS:      11284  HIT:      11259  MISS:         25  HIT %:    99.7784  MISS %:   0.221553   MPKI: 0.000125
L2C LOAD TRANSLATION ACCESS:      61373  HIT:      49978  MISS:      11395  HIT %:    81.4332  MISS %:    18.5668   MPKI: 0.056975
L2C TRANSLATION FROM L1D PREFETCHER ACCESS:         45  HIT:          6  MISS:         39  HIT %:    13.3333  MISS %:    86.6667   MPKI: 0.000195
L2C PREFETCH  REQUESTED:          0  ISSUED:          0  USEFUL:      18330  USELESS:    3539801
L2C USEFUL LOAD PREFETCHES:      18330 PREFETCH ISSUED TO LOWER LEVEL:    3558392  ACCURACY: 0.51512
L2C TIMELY PREFETCHES:      18330 LATE PREFETCHES: 3 DROPPED PREFETCHES: 0
L2C PREFETCHES SAME FILL-ORIGIN LEVEL: 899129 DIFFERENT FILL-ORIGIN LEVEL: 0
L2C AVERAGE MISS LATENCY: 141.974 cycles
L2C RQ	ACCESS:    1572931	FORWARD:          0	MERGED:          0	TO_CACHE:    1572930
L2C WQ	ACCESS:      11288	FORWARD:          1	MERGED:          0	TO_CACHE:      11288
L2C PQ	ACCESS:    4446842	FORWARD:          0	MERGED:          3	TO_CACHE:    4446839

L2C Instructions Evicting Data 0
L2C Translations Evicting Data 11406
L2C Data Evicting Data 3633778
L2C Instructions Evicting Instructions 0
L2C Translations Evicting Instructions 0
L2C Data Evicting Instructions 0
L2C Instructions Evicting Translations 0
L2C Translations Evicting Translations 25
L2C Data Evicting Translations 11408
L2C Dense regions hint from L2: 0
PSCL5 TOTAL     ACCESS:      61085  HIT:      61085  MISS:          0  HIT %:        100  MISS %:          0   MPKI: 0
PSCL5 LOAD TRANSLATION ACCESS:      61052  HIT:      61052  MISS:          0  HIT %:        100  MISS %:          0   MPKI: 0
PSCL5 TRANSLATION FROM L1D PREFETCHER ACCESS:         33  HIT:         33  MISS:          0  HIT %:        100  MISS %:          0   MPKI: 0
PSCL5 PREFETCH  REQUESTED:          0  ISSUED:          0  USEFUL:          0  USELESS:          0
PSCL5 USEFUL LOAD PREFETCHES:          0 PREFETCH ISSUED TO LOWER LEVEL:          0  ACCURACY: -nan
PSCL5 TIMELY PREFETCHES:          0 LATE PREFETCHES: 0 DROPPED PREFETCHES: 0
PSCL5 PREFETCHES SAME FILL-ORIGIN LEVEL: 0 DIFFERENT FILL-ORIGIN LEVEL: 0

PSCL4 TOTAL     ACCESS:      61085  HIT:      61085  MISS:          0  HIT %:        100  MISS %:          0   MPKI: 0
PSCL4 LOAD TRANSLATION ACCESS:      61052  HIT:      61052  MISS:          0  HIT %:        100  MISS %:          0   MPKI: 0
PSCL4 TRANSLATION FROM L1D PREFETCHER ACCESS:         33  HIT:         33  MISS:          0  HIT %:        100  MISS %:          0   MPKI: 0
PSCL4 PREFETCH  REQUESTED:          0  ISSUED:          0  USEFUL:          0  USELESS:          0
PSCL4 USEFUL LOAD PREFETCHES:          0 PREFETCH ISSUED TO LOWER LEVEL:          0  ACCURACY: -nan
PSCL4 TIMELY PREFETCHES:          0 LATE PREFETCHES: 0 DROPPED PREFETCHES: 0
PSCL4 PREFETCHES SAME FILL-ORIGIN LEVEL: 0 DIFFERENT FILL-ORIGIN LEVEL: 0

PSCL3 TOTAL     ACCESS:      61085  HIT:      61084  MISS:          1  HIT %:    99.9984  MISS %: 0.00163706   MPKI: 5e-06
PSCL3 LOAD TRANSLATION ACCESS:      61052  HIT:      61051  MISS:          1  HIT %:    99.9984  MISS %: 0.00163795   MPKI: 5e-06
PSCL3 TRANSLATION FROM L1D PREFETCHER ACCESS:         33  HIT:         33  MISS:          0  HIT %:        100  MISS %:          0   MPKI: 0
PSCL3 PREFETCH  REQUESTED:          0  ISSUED:          0  USEFUL:          0  USELESS:          0
PSCL3 USEFUL LOAD PREFETCHES:          0 PREFETCH ISSUED TO LOWER LEVEL:          0  ACCURACY: -nan
PSCL3 TIMELY PREFETCHES:          0 LATE PREFETCHES: 0 DROPPED PREFETCHES: 0
PSCL3 PREFETCHES SAME FILL-ORIGIN LEVEL: 0 DIFFERENT FILL-ORIGIN LEVEL: 0

PSCL2 TOTAL     ACCESS:      61085  HIT:      60347  MISS:        738  HIT %:    98.7918  MISS %:    1.20815   MPKI: 0.00369
PSCL2 LOAD TRANSLATION ACCESS:      61064  HIT:      60326  MISS:        738  HIT %:    98.7914  MISS %:    1.20857   MPKI: 0.00369
PSCL2 TRANSLATION FROM L1D PREFETCHER ACCESS:         21  HIT:         21  MISS:          0  HIT %:        100  MISS %:          0   MPKI: 0
PSCL2 PREFETCH  REQUESTED:          0  ISSUED:          0  USEFUL:          0  USELESS:          0
PSCL2 USEFUL LOAD PREFETCHES:          0 PREFETCH ISSUED TO LOWER LEVEL:          0  ACCURACY: -nan
PSCL2 TIMELY PREFETCHES:          0 LATE PREFETCHES: 0 DROPPED PREFETCHES: 0
PSCL2 PREFETCHES SAME FILL-ORIGIN LEVEL: 0 DIFFERENT FILL-ORIGIN LEVEL: 0

LLC TOTAL     ACCESS:    3660981  HIT:      18359  MISS:    3642622  HIT %:   0.501478  MISS %:    99.4985   MPKI: 18.2131
LLC LOAD      ACCESS:      86456  HIT:       9579  MISS:      76877  HIT %:    11.0796  MISS %:    88.9204   MPKI: 0.384385
LLC RFO       ACCESS:        565  HIT:        536  MISS:         29  HIT %:    94.8673  MISS %:    5.13274   MPKI: 0.000145
LLC PREFETCH  ACCESS:    3557573  HIT:       2312  MISS:    3555261  HIT %:  0.0649881  MISS %:     99.935   MPKI: 17.7763
LLC WRITEBACK ACCESS:       4953  HIT:       4827  MISS:        126  HIT %:    97.4561  MISS %:    2.54391   MPKI: 0.00063
LLC LOAD TRANSLATION ACCESS:      11395  HIT:       1099  MISS:      10296  HIT %:    9.64458  MISS %:    90.3554   MPKI: 0.05148
LLC TRANSLATION FROM L1D PREFETCHER ACCESS:         39  HIT:          6  MISS:         33  HIT %:    15.3846  MISS %:    84.6154   MPKI: 0.000165
LLC PREFETCH  REQUESTED:          0  ISSUED:          0  USEFUL:      24727  USELESS:   14198971
LLC USEFUL LOAD PREFETCHES:      24727 PREFETCH ISSUED TO LOWER LEVEL:   14223630  ACCURACY: 0.173845
LLC TIMELY PREFETCHES:      24727 LATE PREFETCHES: 0 DROPPED PREFETCHES: 0
LLC PREFETCHES SAME FILL-ORIGIN LEVEL: 0 DIFFERENT FILL-ORIGIN LEVEL: 0
LLC AVERAGE MISS LATENCY: 449.365 cycles
LLC RQ	ACCESS:     394793	FORWARD:          0	MERGED:          0	TO_CACHE:     394793
LLC WQ	ACCESS:      19778	FORWARD:          0	MERGED:          0	TO_CACHE:      19778
LLC PQ	ACCESS:   14231271	FORWARD:          0	MERGED:          0	TO_CACHE:   14231271

LLC Dense regions hint to LLC: 0

RAW hits: 2741
Loads Generated: 55596096
Loads sent to L1D: 55593354
Stores Generated: 19411013
Stores sent to L1D: 19411013
Major fault: 0 Minor fault: 76310
Allocated PAGES: 305238

CPU 1 cumulative IPC: 0.512233 instructions: 200000001 cycles: 390447384
ITLB TOTAL     ACCESS:   54090682  HIT:   54090682  MISS:          0  HIT %:        100  MISS %:          0   MPKI: 0
ITLB LOAD TRANSLATION ACCESS:   54090682  HIT:   54090682  MISS:          0  HIT %:        100  MISS %:          0   MPKI: 0
ITLB PREFETCH  REQUESTED:          0  ISSUED:          0  USEFUL:          0  USELESS:          0
ITLB USEFUL LOAD PREFETCHES:          0 PREFETCH ISSUED TO LOWER LEVEL:          0  ACCURACY: -nan
ITLB TIMELY PREFETCHES:          0 LATE PREFETCHES: 0 DROPPED PREFETCHES: 0
ITLB PREFETCHES SAME FILL-ORIGIN LEVEL: 0 DIFFERENT FILL-ORIGIN LEVEL: 0
ITLB AVERAGE MISS LATENCY: -nan cycles
ITLB RQ	ACCESS:   58013219	FORWARD:          0	MERGED:    3922537	TO_CACHE:   54090682

DTLB TOTAL     ACCESS:   54963889  HIT:   54897750  MISS:      66139  HIT %:    99.8797  MISS %:   0.120332   MPKI: 0.330695
DTLB LOAD TRANSLATION ACCESS:   54963889  HIT:   54897750  MISS:      66139  HIT %:    99.8797  MISS %:   0.120332   MPKI: 0.330695
DTLB PREFETCH  REQUESTED:          0  ISSUED:          0  USEFUL:          0  USELESS:          0
DTLB USEFUL LOAD PREFETCHES:          0 PREFETCH ISSUED TO LOWER LEVEL:          0  ACCURACY: -nan
DTLB TIMELY PREFETCHES:          0 LATE PREFETCHES: 0 DROPPED PREFETCHES: 0
DTLB PREFETCHES SAME FILL-ORIGIN LEVEL: 0 DIFFERENT FILL-ORIGIN LEVEL: 0
DTLB AVERAGE MISS LATENCY: 147.497 cycles
DTLB RQ	ACCESS:   58288978	FORWARD:          0	MERGED:    3322388	TO_CACHE:   54966590

STLB TOTAL     ACCESS:    3100089  HIT:    3039002  MISS:      61087  HIT %:    98.0295  MISS %:    1.97049   MPKI: 0.305435
STLB LOAD TRANSLATION ACCESS:      66139  HIT:       5083  MISS:      61056  HIT %:    7.68533  MISS %:    92.3147   MPKI: 0.30528
STLB TRANSLATION FROM L1D PREFETCHER ACCESS:    3033950  HIT:    3033919  MISS:         31  HIT %:     99.999  MISS %: 0.00102177   MPKI: 0.000155
STLB PREFETCH  REQUESTED:          0  ISSUED:          0  USEFUL:         19  USELESS:         12
STLB USEFUL LOAD PREFETCHES:         19 PREFETCH ISSUED TO LOWER LEVEL:          0  ACCURACY: inf
STLB TIMELY PREFETCHES:         19 LATE PREFETCHES: 0 DROPPED PREFETCHES: 0
STLB PREFETCHES SAME FILL-ORIGIN LEVEL: 0 DIFFERENT FILL-ORIGIN LEVEL: 0
STLB AVERAGE MISS LATENCY: 150.086 cycles
STLB RQ	ACCESS:    4381670	FORWARD:          0	MERGED:    1281577	TO_CACHE:    3100093

STLB Hit, L1D data hit: 0
STLB Hit, L2C data hit: 0
STLB Hit, LLC data hit: 0
STLB Hit, LLC data miss: 0
STLB STLB hints to L2: 0
L1D TOTAL     ACCESS:   61748175  HIT:   56688676  MISS:    5059499  HIT %:    91.8062  MISS %:    8.19376   MPKI: 25.2975
L1D LOAD      ACCESS:   38842935  HIT:   37279768  MISS:    1563167  HIT %:    95.9757  MISS %:    4.02433   MPKI: 7.81583
L1D RFO       ACCESS:   19410501  HIT:   19408908  MISS:       1593  HIT %:    99.9918  MISS %:  0.0082069   MPKI: 0.007965
L1D PREFETCH  ACCESS:    3494739  HIT:          0  MISS:    3494739  HIT %:          0  MISS %:        100   MPKI: 17.4737
L1D PREFETCH  REQUESTED:    8631751  ISSUED:    8631751  USEFUL:    3404547  USELESS:      90183
L1D USEFUL LOAD PREFETCHES:    3404547 PREFETCH ISSUED TO LOWER LEVEL:    4312943  ACCURACY: 78.9379
L1D TIMELY PREFETCHES:    3404547 LATE PREFETCHES: 53345 DROPPED PREFETCHES: 0
L1D PREFETCHES SAME FILL-ORIGIN LEVEL: 3548085 DIFFERENT FILL-ORIGIN LEVEL: 764858
L1D AVERAGE MISS LATENCY: 93.6846 cycles
L1D RQ	ACCESS:   55593167	FORWARD:          0	MERGED:   16714677	TO_CACHE:   38878476
L1D WQ	ACCESS:   19411013	FORWARD:         14	MERGED:        511	TO_CACHE:   19410502
L1D PQ	ACCESS:    4316220	FORWARD:          0	MERGED:        689	TO_CACHE:    4315531

L1D UNIQUE REGIONS ACCESSED: 0
L1D REGIONS CONFLICTS: 0
L1D Cross Page Prefetch Requests: 0
L1D Same Page Prefetch Requests: 5222628
L1D ROI Sum of L1D PQ occupancy: 49149785
L1D PREFETCHES PUSHED FROM L2C: 0
L1I TOTAL     ACCESS:   58013219  HIT:   58013219  MISS:          0  HIT %:        100  MISS %:          0   MPKI: 0
L1I LOAD      ACCESS:   58013219  HIT:   58013219  MISS:          0  HIT %:        100  MISS %:          0   MPKI: 0
L1I PREFETCH  REQUESTED:          0  ISSUED:          0  USEFUL:          0  USELESS:          0
L1I USEFUL LOAD PREFETCHES:          0 PREFETCH ISSUED TO LOWER LEVEL:          0  ACCURACY: -nan
L1I TIMELY PREFETCHES:          0 LATE PREFETCHES: 0 DROPPED PREFETCHES: 0
L1I PREFETCHES SAME FILL-ORIGIN LEVEL: 0 DIFFERENT FILL-ORIGIN LEVEL: 0
L1I AVERAGE MISS LATENCY: -nan cycles
L1I RQ	ACCESS:   79131125	FORWARD:          0	MERGED:   21117906	TO_CACHE:   58013219

BTB TOTAL     ACCESS:   32766010  HIT:   32765988  MISS:         22  HIT %:    99.9999  MISS %: 6.71427e-05   MPKI: 0.00011
BTB BRANCH_DIRECT_JUMP	ACCESS:    4318206  HIT:    4318198  MISS:          8
BTB BRANCH_INDIRECT	ACCESS:          0  HIT:          0  MISS:          0
BTB BRANCH_CONDITIONAL	ACCESS:   24127073  HIT:   24127063  MISS:         10
BTB BRANCH_DIRECT_CALL	ACCESS:    2160365  HIT:    2160363  MISS:          2
BTB BRANCH_INDIRECT_CALL	ACCESS:          0  HIT:          0  MISS:          0
BTB BRANCH_RETURN	ACCESS:    2160366  HIT:    2160364  MISS:          2
BTB BRANCH_OTHER ACCESS:          0  HIT:          0  MISS:          0

L2C TOTAL     ACCESS:    5764440  HIT:    2109034  MISS:    3655406  HIT %:     36.587  MISS %:     63.413   MPKI: 18.277
L2C LOAD      ACCESS:    1509822  HIT:    1423141  MISS:      86681  HIT %:    94.2589  MISS %:    5.74114   MPKI: 0.433405
L2C DATA LOAD MPKI: 0.433405
L2C INSTRUCTION LOAD MPKI: 0
L2C RFO       ACCESS:       1593  HIT:       1018  MISS:        575  HIT %:    63.9046  MISS %:    36.0954   MPKI: 0.002875
[...]
AAAAAAAAA1111111IIIIIIIIIIIIIIIIIIIIIIIIIIIIIIIIIIIIIIIIIIIIIIII
AAAAAAAAAA1111111IIIIIIIIIIIIIIIIIIIIIIIIIIIIIIIIIIIIIIIIIIIIIII
AAAAAAAAAAA1111111IIIIIIIIIIIIIIIIIIIIIIIIIIIIIIIIIIIIIIIIIIIIII
AAAAAAAAAAAA1111111IIIIIIIIIIIIIIIIIIIIIIIIIIIIIIIIIIIIIIIIIIIII
AAAAAAAAAAAAA1111111IIIIIIIIIIIIIIIIIIIIIIIIIIIIIIIIIIIIIIIIIIII
AAAAAAAAAAAAAA1111111IIIIIIIIIIIIIIIIIIIIIIIIIIIIIIIIIIIIIIIIIII
AAAAAAAAAAAAAAA1111111IIIIIIIIIIIIIIIIIIIIIIIIIIIIIIIIIIIIIIIIII
AAAAAAAAAAAAAAAA1111111IIIIIIIIIIIIIIIIIIIIIIIIIIIIIIIIIIIIIIIII
AAAAAAAAAAAAAAAAA1111111IIIIIIIIIIIIIIIIIIIIIIIIIIIIIIIIIIIIIIII
AAAAAAAAAAAAAAAAAA1111111IIIIIIIIIIIIIIIIIIIIIIIIIIIIIIIIIIIIIII
AAAAAAAAAAAAAAAAAAA1111111IIIIIIIIIIIIIIIIIIIIIIIIIIIIIIIIIIIIII
AAAAAAAAAAAAAAAAAAAA1111111IIIIIIIIIIIIIIIIIIIIIIIIIIIIIIIIIIIII
AAAAAAAAAAAAAAAAAAAAA1111111IIIIIIIIIIIIIIIIIIIIIIIIIIIIIIIIIIII
AAAAAAAAAAAAAAAAAAAAAA1111111IIIIIIIIIIIIIIIIIIIIIIIIIIIIIIIIIII
AAAAAAAAAAAAAAAAAAAAAAA1111111IIIIIIIIIIIIIIIIIIIIIIIIIIIIIIIIII
AAAAAAAAAAAAAAAAAAAAAAAA1111111IIIIIIIIIIIIIIIIIIIIIIIIIIIIIIIII
AAAAAAAAAAAAAAAAAAAAAAAAA1111111IIIIIIIIIIIIIIIIIIIIIIIIIIIIIIII
AAAAAAAAAAAAAAAAAAAAAAAAAA1111111IIIIIIIIIIIIIIIIIIIIIIIIIIIIIII
AAAAAAAAAAAAAAAAAAAAAAAAAAA1111111IIIIIIIIIIIIIIIIIIIIIIIIIIIIII
AAAAAAAAAAAAAAAAAAAAAAAAAAAA1111111IIIIIIIIIIIIIIIIIIIIIIIIIIIII
AAAAAAAAAAAAAAAAAAAAAAAAAAAAA1111111IIIIIIIIIIIIIIIIIIIIIIIIIIII
AAAAAAAAAAAAAAAAAAAAAAAAAAAAAA1111111IIIIIIIIIIIIIIIIIIIIIIIIIII
AAAAAAAAAAAAAAAAAAAAAAAAAAAAAAA1111111IIIIIIIIIIIIIIIIIIIIIIIIII
AAAAAAAAAAAAAAAAAAAAAAAAAAAAAAAA1111111IIIIIIIIIIIIIIIIIIIIIIIII
AAAAAAAAAAAAAAAAAAAAAAAAAAAAAAAAA1111111IIIIIIIIIIIIIIIIIIIIIIII
AAAAAAAAAAAAAAAAAAAAAAAAAAAAAAAAAA1111111IIIIIIIIIIIIIIIIIIIIIII
AAAAAAAAAAAAAAAAAAAAAAAAAAAAAAAAAAA1111111IIIIIIIIIIIIIIIIIIIIII
AAAAAAAAAAAAAAAAAAAAAAAAAAAAAAAAAAAA1111111IIIIIIIIIIIIIIIIIIIII
AAAAAAAAAAAAAAAAAAAAAAAAAAAAAAAAAAAAA1111111IIIIIIIIIIIIIIIIIIII
AAAAAAAAAAAAAAAAAAAAAAAAAAAAAAAAAAAAAA1111111IIIIIIIIIIIIIIIIIII
AAAAAAAAAAAAAAAAAAAAAAAAAAAAAAAAAAAAAAA1111111IIIIIIIIIIIIIIIIII
AAAAAAAAAAAAAAAAAAAAAAAAAAAAAAAAAAAAAAAA1111111IIIIIIIIIIIIIIIII
AAAAAAAAAAAAAAAAAAAAAAAAAAAAAAAAAAAAAAAAA1111111IIIIIIIIIIIIIIII
AAAAAAAAAAAAAAAAAAAAAAAAAAAAAAAAAAAAAAAAAA1111111IIIIIIIIIIIIIII
AAAAAAAAAAAAAAAAAAAAAAAAAAAAAAAAAAAAAAAAAAA1111111IIIIIIIIIIIIII
AAAAAAAAAAAAAAAAAAAAAAAAAAAAAAAAAAAAAAAAAAAA1111111IIIIIIIIIIIII
AAAAAAAAAAAAAAAAAAAAAAAAAAAAAAAAAAAAAAAAAAAAA1111111IIIIIIIIIIII
AAAAAAAAAAAAAAAAAAAAAAAAAAAAAAAAAAAAAAAAAAAAAA1111111IIIIIIIIIII
AAAAAAAAAAAAAAAAAAAAAAAAAAAAAAAAAAAAAAAAAAAAAAA1111111IIIIIIIIII
AAAAAAAAAAAAAAAAAAAAAAAAAAAAAAAAAAAAAAAAAAAAAAAA1111111IIIIIIIII
AAAAAAAAAAAAAAAAAAAAAAAAAAAAAAAAAAAAAAAAAAAAAAAAA1111111IIIIIIII
AAAAAAAAAAAAAAAAAAAAAAAAAAAAAAAAAAAAAAAAAAAAAAAAAA1111111IIIIIII
AAAAAAAAAAAAAAAAAAAAAAAAAAAAAAAAAAAAAAAAAAAAAAAAAAA1111111IIIIII
AAAAAAAAAAAAAAAAAAAAAAAAAAAAAAAAAAAAAAAAAAAAAAAAAAAA1111111IIIII
AAAAAAAAAAAAAAAAAAAAAAAAAAAAAAAAAAAAAAAAAAAAAAAAAAAAA1111111IIII
AAAAAAAAAAAAAAAAAAAAAAAAAAAAAAAAAAAAAAAAAAAAAAAAAAAAAA1111111III
AAAAAAAAAAAAAAAAAAAAAAAAAAAAAAAAAAAAAAAAAAAAAAAAAAAAAAA1111111II
AAAAAAAAAAAAAAAAAAAAAAAAAAAAAAAAAAAAAAAAAAAAAAAAAAAAAAAA1111111I
AAAAAAAAAAAAAAAAAAAAAAAAAAAAAAAAAAAAAAAAAAAAAAAAAAAAAAAAA1111111
AAAAAAAAAAAAAAAAAAAAAAAAAAAAAAAAAAAAAAAAAAAAAAAAAAAAAAAAAA111111
AAAAAAAAAAAAAAAAAAAAAAAAAAAAAAAAAAAAAAAAAAAAAAAAAAAAAAAAAAA11111
AAAAAAAAAAAAAAAAAAAAAAAAAAAAAAAAAAAAAAAAAAAAAAAAAAAAAAAAAAAA1111
AAAAAAAAAAAAAAAAAAAAAAAAAAAAAAAAAAAAAAAAAAAAAAAAAAAAAAAAAAAAA111
AAAAAAAAAAAAAAAAAAAAAAAAAAAAAAAAAAAAAAAAAAAAAAAAAAAAAAAAAAAAAA11
AAAAAAAAAAAAAAAAAAAAAAAAAAAAAAAAAAAAAAAAAAAAAAAAAAAAAAAAAAAAAAA1
AAAAAAAAAAAAAAAAAAAAAAAAAAAAAAAAAAAAAAAAAAAAAAAAAAAAAAAAAAAAAAAA
[MLOP] Prefetch Degree Mean: 7.689
[MLOP] Prefetch Degree SD: 2.47744
[MLOP] Max Score Left Mean (%): 48.9014
[MLOP] Max Score Left SD (%): 21.7814
[MLOP] Max Score Right Mean (%): 84.6861
[MLOP] Max Score Right SD (%): 12.1359
=== CPU 1 L1D Prefetcher Statistics ===
[MLOP] History of tracked zone:
IIIIIIIIIIIIIIIIIIIIIIIIIIIIIIIIIIIIIIIIIIIIIIIIIIIIIIIIIIIIIIII
A1111111IIIIIIIIIIIIIIIIIIIIIIIIIIIIIIIIIIIIIIIIIIIIIIIIIIIIIIII
AA1111111IIIIIIIIIIIIIIIIIIIIIIIIIIIIIIIIIIIIIIIIIIIIIIIIIIIIIII
AAA1111111IIIIIIIIIIIIIIIIIIIIIIIIIIIIIIIIIIIIIIIIIIIIIIIIIIIIII
AAAA1111111IIIIIIIIIIIIIIIIIIIIIIIIIIIIIIIIIIIIIIIIIIIIIIIIIIIII
AAAAA1111111IIIIIIIIIIIIIIIIIIIIIIIIIIIIIIIIIIIIIIIIIIIIIIIIIIII
AAAAAA1111111IIIIIIIIIIIIIIIIIIIIIIIIIIIIIIIIIIIIIIIIIIIIIIIIIII
AAAAAAA1111111IIIIIIIIIIIIIIIIIIIIIIIIIIIIIIIIIIIIIIIIIIIIIIIIII
AAAAAAAA1111111IIIIIIIIIIIIIIIIIIIIIIIIIIIIIIIIIIIIIIIIIIIIIIIII
AAAAAAAAA1111111IIIIIIIIIIIIIIIIIIIIIIIIIIIIIIIIIIIIIIIIIIIIIIII
AAAAAAAAAA1111111IIIIIIIIIIIIIIIIIIIIIIIIIIIIIIIIIIIIIIIIIIIIIII
AAAAAAAAAAA1111111IIIIIIIIIIIIIIIIIIIIIIIIIIIIIIIIIIIIIIIIIIIIII
AAAAAAAAAAAA1111111IIIIIIIIIIIIIIIIIIIIIIIIIIIIIIIIIIIIIIIIIIIII
AAAAAAAAAAAAA1111111IIIIIIIIIIIIIIIIIIIIIIIIIIIIIIIIIIIIIIIIIIII
AAAAAAAAAAAAAA1111111IIIIIIIIIIIIIIIIIIIIIIIIIIIIIIIIIIIIIIIIIII
AAAAAAAAAAAAAAA1111111IIIIIIIIIIIIIIIIIIIIIIIIIIIIIIIIIIIIIIIIII
AAAAAAAAAAAAAAAA1111111IIIIIIIIIIIIIIIIIIIIIIIIIIIIIIIIIIIIIIIII
AAAAAAAAAAAAAAAAA1111111IIIIIIIIIIIIIIIIIIIIIIIIIIIIIIIIIIIIIIII
AAAAAAAAAAAAAAAAAA1111111IIIIIIIIIIIIIIIIIIIIIIIIIIIIIIIIIIIIIII
AAAAAAAAAAAAAAAAAAA1111111IIIIIIIIIIIIIIIIIIIIIIIIIIIIIIIIIIIIII
AAAAAAAAAAAAAAAAAAAA1111111IIIIIIIIIIIIIIIIIIIIIIIIIIIIIIIIIIIII
AAAAAAAAAAAAAAAAAAAAA1111111IIIIIIIIIIIIIIIIIIIIIIIIIIIIIIIIIIII
AAAAAAAAAAAAAAAAAAAAAA1111111IIIIIIIIIIIIIIIIIIIIIIIIIIIIIIIIIII
AAAAAAAAAAAAAAAAAAAAAAA1111111IIIIIIIIIIIIIIIIIIIIIIIIIIIIIIIIII
AAAAAAAAAAAAAAAAAAAAAAAA1111111IIIIIIIIIIIIIIIIIIIIIIIIIIIIIIIII
AAAAAAAAAAAAAAAAAAAAAAAAA1111111IIIIIIIIIIIIIIIIIIIIIIIIIIIIIIII
AAAAAAAAAAAAAAAAAAAAAAAAAA1111111IIIIIIIIIIIIIIIIIIIIIIIIIIIIIII
AAAAAAAAAAAAAAAAAAAAAAAAAAA1111111IIIIIIIIIIIIIIIIIIIIIIIIIIIIII
AAAAAAAAAAAAAAAAAAAAAAAAAAAA1111111IIIIIIIIIIIIIIIIIIIIIIIIIIIII
AAAAAAAAAAAAAAAAAAAAAAAAAAAAA1111111IIIIIIIIIIIIIIIIIIIIIIIIIIII
AAAAAAAAAAAAAAAAAAAAAAAAAAAAAA1111111IIIIIIIIIIIIIIIIIIIIIIIIIII
AAAAAAAAAAAAAAAAAAAAAAAAAAAAAAA1111111IIIIIIIIIIIIIIIIIIIIIIIIII
AAAAAAAAAAAAAAAAAAAAAAAAAAAAAAAA1111111IIIIIIIIIIIIIIIIIIIIIIIII
AAAAAAAAAAAAAAAAAAAAAAAAAAAAAAAAA1111111IIIIIIIIIIIIIIIIIIIIIIII
AAAAAAAAAAAAAAAAAAAAAAAAAAAAAAAAAA1111111IIIIIIIIIIIIIIIIIIIIIII
AAAAAAAAAAAAAAAAAAAAAAAAAAAAAAAAAAA1111111IIIIIIIIIIIIIIIIIIIIII
AAAAAAAAAAAAAAAAAAAAAAAAAAAAAAAAAAAA1111111IIIIIIIIIIIIIIIIIIIII
AAAAAAAAAAAAAAAAAAAAAAAAAAAAAAAAAAAAA1111111IIIIIIIIIIIIIIIIIIII
AAAAAAAAAAAAAAAAAAAAAAAAAAAAAAAAAAAAAA1111111IIIIIIIIIIIIIIIIIII
AAAAAAAAAAAAAAAAAAAAAAAAAAAAAAAAAAAAAAA1111111IIIIIIIIIIIIIIIIII
AAAAAAAAAAAAAAAAAAAAAAAAAAAAAAAAAAAAAAAA1111111IIIIIIIIIIIIIIIII
AAAAAAAAAAAAAAAAAAAAAAAAAAAAAAAAAAAAAAAAA1111111IIIIIIIIIIIIIIII
AAAAAAAAAAAAAAAAAAAAAAAAAAAAAAAAAAAAAAAAAA1111111IIIIIIIIIIIIIII
AAAAAAAAAAAAAAAAAAAAAAAAAAAAAAAAAAAAAAAAAAA1111111IIIIIIIIIIIIII
AAAAAAAAAAAAAAAAAAAAAAAAAAAAAAAAAAAAAAAAAAAA1111111IIIIIIIIIIIII
AAAAAAAAAAAAAAAAAAAAAAAAAAAAAAAAAAAAAAAAAAAAA1111111IIIIIIIIIIII
AAAAAAAAAAAAAAAAAAAAAAAAAAAAAAAAAAAAAAAAAAAAAA1111111IIIIIIIIIII
AAAAAAAAAAAAAAAAAAAAAAAAAAAAAAAAAAAAAAAAAAAAAAA1111111IIIIIIIIII
AAAAAAAAAAAAAAAAAAAAAAAAAAAAAAAAAAAAAAAAAAAAAAAA1111111IIIIIIIII
AAAAAAAAAAAAAAAAAAAAAAAAAAAAAAAAAAAAAAAAAAAAAAAAA1111111IIIIIIII
AAAAAAAAAAAAAAAAAAAAAAAAAAAAAAAAAAAAAAAAAAAAAAAAAA1111111IIIIIII
AAAAAAAAAAAAAAAAAAAAAAAAAAAAAAAAAAAAAAAAAAAAAAAAAAA1111111IIIIII
AAAAAAAAAAAAAAAAAAAAAAAAAAAAAAAAAAAAAAAAAAAAAAAAAAAA1111111IIIII
AAAAAAAAAAAAAAAAAAAAAAAAAAAAAAAAAAAAAAAAAAAAAAAAAAAAA1111111IIII
AAAAAAAAAAAAAAAAAAAAAAAAAAAAAAAAAAAAAAAAAAAAAAAAAAAAAA1111111III
AAAAAAAAAAAAAAAAAAAAAAAAAAAAAAAAAAAAAAAAAAAAAAAAAAAAAAA1111111II
AAAAAAAAAAAAAAAAAAAAAAAAAAAAAAAAAAAAAAAAAAAAAAAAAAAAAAAA1111111I
AAAAAAAAAAAAAAAAAAAAAAAAAAAAAAAAAAAAAAAAAAAAAAAAAAAAAAAAA1111111
AAAAAAAAAAAAAAAAAAAAAAAAAAAAAAAAAAAAAAAAAAAAAAAAAAAAAAAAAA111111
AAAAAAAAAAAAAAAAAAAAAAAAAAAAAAAAAAAAAAAAAAAAAAAAAAAAAAAAAAA11111
AAAAAAAAAAAAAAAAAAAAAAAAAAAAAAAAAAAAAAAAAAAAAAAAAAAAAAAAAAAA1111
AAAAAAAAAAAAAAAAAAAAAAAAAAAAAAAAAAAAAAAAAAAAAAAAAAAAAAAAAAAAA111
AAAAAAAAAAAAAAAAAAAAAAAAAAAAAAAAAAAAAAAAAAAAAAAAAAAAAAAAAAAAAA11
AAAAAAAAAAAAAAAAAAAAAAAAAAAAAAAAAAAAAAAAAAAAAAAAAAAAAAAAAAAAAAA1
AAAAAAAAAAAAAAAAAAAAAAAAAAAAAAAAAAAAAAAAAAAAAAAAAAAAAAAAAAAAAAAA
[MLOP] Prefetch Degree Mean: 7.60369
[MLOP] Prefetch Degree SD: 2.47933
[MLOP] Max Score Left Mean (%): 49.2728
[MLOP] Max Score Left SD (%): 21.7429
[MLOP] Max Score Right Mean (%): 84.6341
[MLOP] Max Score Right SD (%): 12.4366
=== CPU 2 L1D Prefetcher Statistics ===
[MLOP] History of tracked zone:
IIIIIIIIIIIIIIIIIIIIIIIIIIIIIIIIIIIIIIIIIIIIIIIIIIIIIIIIIIIIIIII
A1111111IIIIIIIIIIIIIIIIIIIIIIIIIIIIIIIIIIIIIIIIIIIIIIIIIIIIIIII
AA1111111IIIIIIIIIIIIIIIIIIIIIIIIIIIIIIIIIIIIIIIIIIIIIIIIIIIIIII
AAA1111111IIIIIIIIIIIIIIIIIIIIIIIIIIIIIIIIIIIIIIIIIIIIIIIIIIIIII
AAAA1111111IIIIIIIIIIIIIIIIIIIIIIIIIIIIIIIIIIIIIIIIIIIIIIIIIIIII
AAAAA1111111IIIIIIIIIIIIIIIIIIIIIIIIIIIIIIIIIIIIIIIIIIIIIIIIIIII
AAAAAA1111111IIIIIIIIIIIIIIIIIIIIIIIIIIIIIIIIIIIIIIIIIIIIIIIIIII
AAAAAAA1111111IIIIIIIIIIIIIIIIIIIIIIIIIIIIIIIIIIIIIIIIIIIIIIIIII
AAAAAAAA1111111IIIIIIIIIIIIIIIIIIIIIIIIIIIIIIIIIIIIIIIIIIIIIIIII
AAAAAAAAA1111111IIIIIIIIIIIIIIIIIIIIIIIIIIIIIIIIIIIIIIIIIIIIIIII
AAAAAAAAAA1111111IIIIIIIIIIIIIIIIIIIIIIIIIIIIIIIIIIIIIIIIIIIIIII
AAAAAAAAAAA1111111IIIIIIIIIIIIIIIIIIIIIIIIIIIIIIIIIIIIIIIIIIIIII
AAAAAAAAAAAA1111111IIIIIIIIIIIIIIIIIIIIIIIIIIIIIIIIIIIIIIIIIIIII
AAAAAAAAAAAAA1111111IIIIIIIIIIIIIIIIIIIIIIIIIIIIIIIIIIIIIIIIIIII
AAAAAAAAAAAAAA1111111IIIIIIIIIIIIIIIIIIIIIIIIIIIIIIIIIIIIIIIIIII
AAAAAAAAAAAAAAA1111111IIIIIIIIIIIIIIIIIIIIIIIIIIIIIIIIIIIIIIIIII
AAAAAAAAAAAAAAAA1111111IIIIIIIIIIIIIIIIIIIIIIIIIIIIIIIIIIIIIIIII
AAAAAAAAAAAAAAAAA1111111IIIIIIIIIIIIIIIIIIIIIIIIIIIIIIIIIIIIIIII
AAAAAAAAAAAAAAAAAA1111111IIIIIIIIIIIIIIIIIIIIIIIIIIIIIIIIIIIIIII
AAAAAAAAAAAAAAAAAAA1111111IIIIIIIIIIIIIIIIIIIIIIIIIIIIIIIIIIIIII
AAAAAAAAAAAAAAAAAAAA1111111IIIIIIIIIIIIIIIIIIIIIIIIIIIIIIIIIIIII
AAAAAAAAAAAAAAAAAAAAA1111111IIIIIIIIIIIIIIIIIIIIIIIIIIIIIIIIIIII
AAAAAAAAAAAAAAAAAAAAAA1111111IIIIIIIIIIIIIIIIIIIIIIIIIIIIIIIIIII
AAAAAAAAAAAAAAAAAAAAAAA1111111IIIIIIIIIIIIIIIIIIIIIIIIIIIIIIIIII
AAAAAAAAAAAAAAAAAAAAAAAA1111111IIIIIIIIIIIIIIIIIIIIIIIIIIIIIIIII
AAAAAAAAAAAAAAAAAAAAAAAAA1111111IIIIIIIIIIIIIIIIIIIIIIIIIIIIIIII
AAAAAAAAAAAAAAAAAAAAAAAAAA1111111IIIIIIIIIIIIIIIIIIIIIIIIIIIIIII
AAAAAAAAAAAAAAAAAAAAAAAAAAA1111111IIIIIIIIIIIIIIIIIIIIIIIIIIIIII
AAAAAAAAAAAAAAAAAAAAAAAAAAAA1111111IIIIIIIIIIIIIIIIIIIIIIIIIIIII
AAAAAAAAAAAAAAAAAAAAAAAAAAAAA1111111IIIIIIIIIIIIIIIIIIIIIIIIIIII
AAAAAAAAAAAAAAAAAAAAAAAAAAAAAA1111111IIIIIIIIIIIIIIIIIIIIIIIIIII
AAAAAAAAAAAAAAAAAAAAAAAAAAAAAAA1111111IIIIIIIIIIIIIIIIIIIIIIIIII
AAAAAAAAAAAAAAAAAAAAAAAAAAAAAAAA1111111IIIIIIIIIIIIIIIIIIIIIIIII
AAAAAAAAAAAAAAAAAAAAAAAAAAAAAAAAA1111111IIIIIIIIIIIIIIIIIIIIIIII
AAAAAAAAAAAAAAAAAAAAAAAAAAAAAAAAAA1111111IIIIIIIIIIIIIIIIIIIIIII
AAAAAAAAAAAAAAAAAAAAAAAAAAAAAAAAAAA1111111IIIIIIIIIIIIIIIIIIIIII
AAAAAAAAAAAAAAAAAAAAAAAAAAAAAAAAAAAA1111111IIIIIIIIIIIIIIIIIIIII
AAAAAAAAAAAAAAAAAAAAAAAAAAAAAAAAAAAAA1111111IIIIIIIIIIIIIIIIIIII
AAAAAAAAAAAAAAAAAAAAAAAAAAAAAAAAAAAAAA1111111IIIIIIIIIIIIIIIIIII
AAAAAAAAAAAAAAAAAAAAAAAAAAAAAAAAAAAAAAA1111111IIIIIIIIIIIIIIIIII
AAAAAAAAAAAAAAAAAAAAAAAAAAAAAAAAAAAAAAAA1111111IIIIIIIIIIIIIIIII
AAAAAAAAAAAAAAAAAAAAAAAAAAAAAAAAAAAAAAAAA1111111IIIIIIIIIIIIIIII
AAAAAAAAAAAAAAAAAAAAAAAAAAAAAAAAAAAAAAAAAA1111111IIIIIIIIIIIIIII
AAAAAAAAAAAAAAAAAAAAAAAAAAAAAAAAAAAAAAAAAAA1111111IIIIIIIIIIIIII
AAAAAAAAAAAAAAAAAAAAAAAAAAAAAAAAAAAAAAAAAAAA1111111IIIIIIIIIIIII
AAAAAAAAAAAAAAAAAAAAAAAAAAAAAAAAAAAAAAAAAAAAA1111111IIIIIIIIIIII
AAAAAAAAAAAAAAAAAAAAAAAAAAAAAAAAAAAAAAAAAAAAAA1111111IIIIIIIIIII
AAAAAAAAAAAAAAAAAAAAAAAAAAAAAAAAAAAAAAAAAAAAAAA1111111IIIIIIIIII
AAAAAAAAAAAAAAAAAAAAAAAAAAAAAAAAAAAAAAAAAAAAAAAA1111111IIIIIIIII
AAAAAAAAAAAAAAAAAAAAAAAAAAAAAAAAAAAAAAAAAAAAAAAAA1111111IIIIIIII
AAAAAAAAAAAAAAAAAAAAAAAAAAAAAAAAAAAAAAAAAAAAAAAAAA1111111IIIIIII
AAAAAAAAAAAAAAAAAAAAAAAAAAAAAAAAAAAAAAAAAAAAAAAAAAA1111111IIIIII
AAAAAAAAAAAAAAAAAAAAAAAAAAAAAAAAAAAAAAAAAAAAAAAAAAAA1111111IIIII
AAAAAAAAAAAAAAAAAAAAAAAAAAAAAAAAAAAAAAAAAAAAAAAAAAAAA1111111IIII
AAAAAAAAAAAAAAAAAAAAAAAAAAAAAAAAAAAAAAAAAAAAAAAAAAAAAA1111111III
AAAAAAAAAAAAAAAAAAAAAAAAAAAAAAAAAAAAAAAAAAAAAAAAAAAAAAA1111111II
AAAAAAAAAAAAAAAAAAAAAAAAAAAAAAAAAAAAAAAAAAAAAAAAAAAAAAAA1111111I
AAAAAAAAAAAAAAAAAAAAAAAAAAAAAAAAAAAAAAAAAAAAAAAAAAAAAAAAA1111111
AAAAAAAAAAAAAAAAAAAAAAAAAAAAAAAAAAAAAAAAAAAAAAAAAAAAAAAAAA111111
AAAAAAAAAAAAAAAAAAAAAAAAAAAAAAAAAAAAAAAAAAAAAAAAAAAAAAAAAAA11111
AAAAAAAAAAAAAAAAAAAAAAAAAAAAAAAAAAAAAAAAAAAAAAAAAAAAAAAAAAAA1111
AAAAAAAAAAAAAAAAAAAAAAAAAAAAAAAAAAAAAAAAAAAAAAAAAAAAAAAAAAAAA111
AAAAAAAAAAAAAAAAAAAAAAAAAAAAAAAAAAAAAAAAAAAAAAAAAAAAAAAAAAAAAA11
AAAAAAAAAAAAAAAAAAAAAAAAAAAAAAAAAAAAAAAAAAAAAAAAAAAAAAAAAAAAAAA1
AAAAAAAAAAAAAAAAAAAAAAAAAAAAAAAAAAAAAAAAAAAAAAAAAAAAAAAAAAAAAAAA
[MLOP] Prefetch Degree Mean: 7.6729
[MLOP] Prefetch Degree SD: 2.54042
[MLOP] Max Score Left Mean (%): 48.8514
[MLOP] Max Score Left SD (%): 21.3716
[MLOP] Max Score Right Mean (%): 84.4439
[MLOP] Max Score Right SD (%): 12.0165
=== CPU 3 L1D Prefetcher Statistics ===
[MLOP] History of tracked zone:
IIIIIIIIIIIIIIIIIIIIIIIIIIIIIIIIIIIIIIIIIIIIIIIIIIIIIIIIIIIIIIII
A1111111IIIIIIIIIIIIIIIIIIIIIIIIIIIIIIIIIIIIIIIIIIIIIIIIIIIIIIII
AA1111111IIIIIIIIIIIIIIIIIIIIIIIIIIIIIIIIIIIIIIIIIIIIIIIIIIIIIII
AAA1111111IIIIIIIIIIIIIIIIIIIIIIIIIIIIIIIIIIIIIIIIIIIIIIIIIIIIII
AAAA1111111IIIIIIIIIIIIIIIIIIIIIIIIIIIIIIIIIIIIIIIIIIIIIIIIIIIII
AAAAA1111111IIIIIIIIIIIIIIIIIIIIIIIIIIIIIIIIIIIIIIIIIIIIIIIIIIII
AAAAAA1111111IIIIIIIIIIIIIIIIIIIIIIIIIIIIIIIIIIIIIIIIIIIIIIIIIII
AAAAAAA1111111IIIIIIIIIIIIIIIIIIIIIIIIIIIIIIIIIIIIIIIIIIIIIIIIII
AAAAAAAA1111111IIIIIIIIIIIIIIIIIIIIIIIIIIIIIIIIIIIIIIIIIIIIIIIII
AAAAAAAAA1111111IIIIIIIIIIIIIIIIIIIIIIIIIIIIIIIIIIIIIIIIIIIIIIII
AAAAAAAAAA1111111IIIIIIIIIIIIIIIIIIIIIIIIIIIIIIIIIIIIIIIIIIIIIII
AAAAAAAAAAA1111111IIIIIIIIIIIIIIIIIIIIIIIIIIIIIIIIIIIIIIIIIIIIII
AAAAAAAAAAAA1111111IIIIIIIIIIIIIIIIIIIIIIIIIIIIIIIIIIIIIIIIIIIII
AAAAAAAAAAAAA1111111IIIIIIIIIIIIIIIIIIIIIIIIIIIIIIIIIIIIIIIIIIII
AAAAAAAAAAAAAA1111111IIIIIIIIIIIIIIIIIIIIIIIIIIIIIIIIIIIIIIIIIII
AAAAAAAAAAAAAAA1111111IIIIIIIIIIIIIIIIIIIIIIIIIIIIIIIIIIIIIIIIII
AAAAAAAAAAAAAAAA1111111IIIIIIIIIIIIIIIIIIIIIIIIIIIIIIIIIIIIIIIII
AAAAAAAAAAAAAAAAA1111111IIIIIIIIIIIIIIIIIIIIIIIIIIIIIIIIIIIIIIII
AAAAAAAAAAAAAAAAAA1111111IIIIIIIIIIIIIIIIIIIIIIIIIIIIIIIIIIIIIII
AAAAAAAAAAAAAAAAAAA1111111IIIIIIIIIIIIIIIIIIIIIIIIIIIIIIIIIIIIII
AAAAAAAAAAAAAAAAAAAA1111111IIIIIIIIIIIIIIIIIIIIIIIIIIIIIIIIIIIII
AAAAAAAAAAAAAAAAAAAAA1111111IIIIIIIIIIIIIIIIIIIIIIIIIIIIIIIIIIII
AAAAAAAAAAAAAAAAAAAAAA1111111IIIIIIIIIIIIIIIIIIIIIIIIIIIIIIIIIII
AAAAAAAAAAAAAAAAAAAAAAA1111111IIIIIIIIIIIIIIIIIIIIIIIIIIIIIIIIII
AAAAAAAAAAAAAAAAAAAAAAAA1111111IIIIIIIIIIIIIIIIIIIIIIIIIIIIIIIII
AAAAAAAAAAAAAAAAAAAAAAAAA1111111IIIIIIIIIIIIIIIIIIIIIIIIIIIIIIII
AAAAAAAAAAAAAAAAAAAAAAAAAA1111111IIIIIIIIIIIIIIIIIIIIIIIIIIIIIII
AAAAAAAAAAAAAAAAAAAAAAAAAAA1111111IIIIIIIIIIIIIIIIIIIIIIIIIIIIII
AAAAAAAAAAAAAAAAAAAAAAAAAAAA1111111IIIIIIIIIIIIIIIIIIIIIIIIIIIII
AAAAAAAAAAAAAAAAAAAAAAAAAAAAA1111111IIIIIIIIIIIIIIIIIIIIIIIIIIII
AAAAAAAAAAAAAAAAAAAAAAAAAAAAAA1111111IIIIIIIIIIIIIIIIIIIIIIIIIII
AAAAAAAAAAAAAAAAAAAAAAAAAAAAAAA1111111IIIIIIIIIIIIIIIIIIIIIIIIII
AAAAAAAAAAAAAAAAAAAAAAAAAAAAAAAA1111111IIIIIIIIIIIIIIIIIIIIIIIII
AAAAAAAAAAAAAAAAAAAAAAAAAAAAAAAAA1111111IIIIIIIIIIIIIIIIIIIIIIII
AAAAAAAAAAAAAAAAAAAAAAAAAAAAAAAAAA1111111IIIIIIIIIIIIIIIIIIIIIII
AAAAAAAAAAAAAAAAAAAAAAAAAAAAAAAAAAA1111111IIIIIIIIIIIIIIIIIIIIII
AAAAAAAAAAAAAAAAAAAAAAAAAAAAAAAAAAAA1111111IIIIIIIIIIIIIIIIIIIII
AAAAAAAAAAAAAAAAAAAAAAAAAAAAAAAAAAAAA1111111IIIIIIIIIIIIIIIIIIII
AAAAAAAAAAAAAAAAAAAAAAAAAAAAAAAAAAAAAA1111111IIIIIIIIIIIIIIIIIII
AAAAAAAAAAAAAAAAAAAAAAAAAAAAAAAAAAAAAAA1111111IIIIIIIIIIIIIIIIII
AAAAAAAAAAAAAAAAAAAAAAAAAAAAAAAAAAAAAAAA1111111IIIIIIIIIIIIIIIII
AAAAAAAAAAAAAAAAAAAAAAAAAAAAAAAAAAAAAAAAA1111111IIIIIIIIIIIIIIII
AAAAAAAAAAAAAAAAAAAAAAAAAAAAAAAAAAAAAAAAAA1111111IIIIIIIIIIIIIII
AAAAAAAAAAAAAAAAAAAAAAAAAAAAAAAAAAAAAAAAAAA1111111IIIIIIIIIIIIII
AAAAAAAAAAAAAAAAAAAAAAAAAAAAAAAAAAAAAAAAAAAA1111111IIIIIIIIIIIII
AAAAAAAAAAAAAAAAAAAAAAAAAAAAAAAAAAAAAAAAAAAAA1111111IIIIIIIIIIII
AAAAAAAAAAAAAAAAAAAAAAAAAAAAAAAAAAAAAAAAAAAAAA1111111IIIIIIIIIII
AAAAAAAAAAAAAAAAAAAAAAAAAAAAAAAAAAAAAAAAAAAAAAA1111111IIIIIIIIII
AAAAAAAAAAAAAAAAAAAAAAAAAAAAAAAAAAAAAAAAAAAAAAAA1111111IIIIIIIII
AAAAAAAAAAAAAAAAAAAAAAAAAAAAAAAAAAAAAAAAAAAAAAAAA1111111IIIIIIII
AAAAAAAAAAAAAAAAAAAAAAAAAAAAAAAAAAAAAAAAAAAAAAAAAA1111111IIIIIII
AAAAAAAAAAAAAAAAAAAAAAAAAAAAAAAAAAAAAAAAAAAAAAAAAAA1111111IIIIII
AAAAAAAAAAAAAAAAAAAAAAAAAAAAAAAAAAAAAAAAAAAAAAAAAAAA1111111IIIII
AAAAAAAAAAAAAAAAAAAAAAAAAAAAAAAAAAAAAAAAAAAAAAAAAAAAA1111111IIII
AAAAAAAAAAAAAAAAAAAAAAAAAAAAAAAAAAAAAAAAAAAAAAAAAAAAAA1111111III
AAAAAAAAAAAAAAAAAAAAAAAAAAAAAAAAAAAAAAAAAAAAAAAAAAAAAAA1111111II
AAAAAAAAAAAAAAAAAAAAAAAAAAAAAAAAAAAAAAAAAAAAAAAAAAAAAAAA1111111I
AAAAAAAAAAAAAAAAAAAAAAAAAAAAAAAAAAAAAAAAAAAAAAAAAAAAAAAAA1111111
AAAAAAAAAAAAAAAAAAAAAAAAAAAAAAAAAAAAAAAAAAAAAAAAAAAAAAAAAA111111
AAAAAAAAAAAAAAAAAAAAAAAAAAAAAAAAAAAAAAAAAAAAAAAAAAAAAAAAAAA11111
AAAAAAAAAAAAAAAAAAAAAAAAAAAAAAAAAAAAAAAAAAAAAAAAAAAAAAAAAAAA1111
AAAAAAAAAAAAAAAAAAAAAAAAAAAAAAAAAAAAAAAAAAAAAAAAAAAAAAAAAAAAA111
AAAAAAAAAAAAAAAAAAAAAAAAAAAAAAAAAAAAAAAAAAAAAAAAAAAAAAAAAAAAAA11
AAAAAAAAAAAAAAAAAAAAAAAAAAAAAAAAAAAAAAAAAAAAAAAAAAAAAAAAAAAAAAA1
AAAAAAAAAAAAAAAAAAAAAAAAAAAAAAAAAAAAAAAAAAAAAAAAAAAAAAAAAAAAAAAA
[MLOP] Prefetch Degree Mean: 7.87805
[MLOP] Prefetch Degree SD: 2.44346
[MLOP] Max Score Left Mean (%): 49.8263
[MLOP] Max Score Left SD (%): 20.3071
[MLOP] Max Score Right Mean (%): 84.3229
[MLOP] Max Score Right SD (%): 11.7869

DRAM Statistics
 CHANNEL 0
 RQ ROW_BUFFER_HIT:   11397450  ROW_BUFFER_MISS:    3174879
 DBUS_CONGESTED:      35556
 WQ ROW_BUFFER_HIT:       7397  ROW_BUFFER_MISS:      12348  FULL:          0

 AVG_CONGESTED_CYCLE: 4
 All warmup complete: 5
Channel 0 Bank busy for read cycles: 0
Channel 0 Bank busy for write cycles: 0
Channel 0
Rank 0
0banks busy for read cycles: 31028874
0banks busy for write cycles: 5676
1banks busy for read cycles: 81231349
1banks busy for write cycles: 4969297
2banks busy for read cycles: 84712191
2banks busy for write cycles: 2816246
3banks busy for read cycles: 68744382
3banks busy for write cycles: 1859720
4banks busy for read cycles: 45244651
4banks busy for write cycles: 1289994
5banks busy for read cycles: 26667423
5banks busy for write cycles: 884478
6banks busy for read cycles: 15283744
6banks busy for write cycles: 673553
7banks busy for read cycles: 11442923
7banks busy for write cycles: 422406
8banks busy for read cycles: 12923302
8banks busy for write cycles: 247176

CPU 0 Branch Prediction Accuracy: 99.9621% MPKI: 0.0971786 Average ROB Occupancy at Mispredict: 312.406
Branch types
NOT_BRANCH: 148751171 74.3596%
BRANCH_DIRECT_JUMP: 4319107 2.15909%
BRANCH_INDIRECT: 0 0%
BRANCH_CONDITIONAL: 42651182 21.321%
BRANCH_DIRECT_CALL: 2160817 1.08018%
BRANCH_INDIRECT_CALL: 0 0%
BRANCH_RETURN: 2160816 1.08018%
BRANCH_OTHER: 0 0%


CPU 1 Branch Prediction Accuracy: 99.9621% MPKI: 0.0971848 Average ROB Occupancy at Mispredict: 312.407
Branch types
NOT_BRANCH: 148719518 74.3598%
BRANCH_DIRECT_JUMP: 4318206 2.1591%
BRANCH_INDIRECT: 0 0%
BRANCH_CONDITIONAL: 42641917 21.321%
BRANCH_DIRECT_CALL: 2160365 1.08018%
BRANCH_INDIRECT_CALL: 0 0%
BRANCH_RETURN: 2160366 1.08018%
BRANCH_OTHER: 0 0%


CPU 2 Branch Prediction Accuracy: 99.9621% MPKI: 0.0971987 Average ROB Occupancy at Mispredict: 312.391
Branch types
NOT_BRANCH: 148782376 74.3597%
BRANCH_DIRECT_JUMP: 4320037 2.1591%
BRANCH_INDIRECT: 0 0%
BRANCH_CONDITIONAL: 42659893 21.3209%
BRANCH_DIRECT_CALL: 2161281 1.08018%
BRANCH_INDIRECT_CALL: 0 0%
BRANCH_RETURN: 2161280 1.08018%
BRANCH_OTHER: 0 0%


CPU 3 Branch Prediction Accuracy: 99.9621% MPKI: 0.0971833 Average ROB Occupancy at Mispredict: 312.414
Branch types
NOT_BRANCH: 148744840 74.3596%
BRANCH_DIRECT_JUMP: 4318939 2.1591%
BRANCH_INDIRECT: 0 0%
BRANCH_CONDITIONAL: 42649200 21.3209%
BRANCH_DIRECT_CALL: 2160732 1.08018%
BRANCH_INDIRECT_CALL: 0 0%
BRANCH_RETURN: 2160733 1.08018%
BRANCH_OTHER: 0 0%

DRAM PAGES: 1048576
Allocated PAGES: 305238
