
*** ChampSim Multicore Out-of-Order Simulator ***

Warmup Instructions: 50000000
Simulation Instructions: 200000000
Number of CPUs: 4
LLC sets: 8192
LLC ways: 16
Off-chip DRAM Size: 4096 MB Channels: 1 Width: 64-bit Data Rate: 6400 MT/s
CPU 0 runs ./traces/spec/483.xalancbmk-127B.champsimtrace.xz
.xz
CPU 1 runs ./traces/spec/459.GemsFDTD-1418B.champsimtrace.xz
.xz
CPU 2 runs ./traces/spec/607.cactuBSSN_s-2421B.champsimtrace.xz
.xz
CPU 3 runs ./traces/spec/602.gcc_s-734B.champsimtrace.xz
.xz
BTB has LRU replacement policy
ITLB has LRU replacement policy
DTLB has LRU replacement policy
STLB has LRU replacement policy
L1I has LRU replacement policy
L1D has LRU replacement policy
Initialize SRRIP state for L2C
Initialize DRRIP state for LLC
BTB has LRU replacement policy
ITLB has LRU replacement policy
DTLB has LRU replacement policy
STLB has LRU replacement policy
L1I has LRU replacement policy
L1D has LRU replacement policy
Initialize SRRIP state for L2C
Initialize DRRIP state for LLC
BTB has LRU replacement policy
ITLB has LRU replacement policy
DTLB has LRU replacement policy
STLB has LRU replacement policy
L1I has LRU replacement policy
L1D has LRU replacement policy
Initialize SRRIP state for L2C
Initialize DRRIP state for LLC
BTB has LRU replacement policy
ITLB has LRU replacement policy
DTLB has LRU replacement policy
STLB has LRU replacement policy
L1I has LRU replacement policy
L1D has LRU replacement policy
Initialize SRRIP state for L2C
Initialize DRRIP state for LLC
Heartbeat CPU 0 instructions: 10000000 cycles: 2910428 heartbeat IPC: 3.43592 cumulative IPC: 3.43592 (Simulation time: 0 hr 3 min 11 sec) 
Heartbeat CPU 3 instructions: 10000000 cycles: 3231520 heartbeat IPC: 3.09452 cumulative IPC: 3.09452 (Simulation time: 0 hr 3 min 31 sec) 
Heartbeat CPU 2 instructions: 10000002 cycles: 3587497 heartbeat IPC: 2.78746 cumulative IPC: 2.78746 (Simulation time: 0 hr 3 min 54 sec) 
Heartbeat CPU 1 instructions: 10000003 cycles: 5287658 heartbeat IPC: 1.8912 cumulative IPC: 1.8912 (Simulation time: 0 hr 5 min 44 sec) 
Heartbeat CPU 0 instructions: 20000003 cycles: 5821707 heartbeat IPC: 3.43492 cumulative IPC: 3.43542 (Simulation time: 0 hr 6 min 21 sec) 
Heartbeat CPU 3 instructions: 20000002 cycles: 6476144 heartbeat IPC: 3.08202 cumulative IPC: 3.08826 (Simulation time: 0 hr 7 min 3 sec) 
Heartbeat CPU 2 instructions: 20000001 cycles: 7171582 heartbeat IPC: 2.79011 cumulative IPC: 2.78878 (Simulation time: 0 hr 7 min 51 sec) 
Heartbeat CPU 0 instructions: 30000003 cycles: 8783579 heartbeat IPC: 3.37624 cumulative IPC: 3.41546 (Simulation time: 0 hr 9 min 30 sec) 
Heartbeat CPU 3 instructions: 30000000 cycles: 9697769 heartbeat IPC: 3.10402 cumulative IPC: 3.09349 (Simulation time: 0 hr 10 min 30 sec) 
Heartbeat CPU 1 instructions: 20000002 cycles: 10575167 heartbeat IPC: 1.89125 cumulative IPC: 1.89122 (Simulation time: 0 hr 11 min 28 sec) 
Heartbeat CPU 2 instructions: 30000002 cycles: 10759086 heartbeat IPC: 2.78745 cumulative IPC: 2.78834 (Simulation time: 0 hr 11 min 40 sec) 
Heartbeat CPU 0 instructions: 40000001 cycles: 11705873 heartbeat IPC: 3.42197 cumulative IPC: 3.41709 (Simulation time: 0 hr 12 min 41 sec) 
Heartbeat CPU 3 instructions: 40000000 cycles: 12944858 heartbeat IPC: 3.07968 cumulative IPC: 3.09003 (Simulation time: 0 hr 14 min 2 sec) 
Heartbeat CPU 2 instructions: 40000003 cycles: 14346504 heartbeat IPC: 2.78752 cumulative IPC: 2.78814 (Simulation time: 0 hr 15 min 31 sec) 
Heartbeat CPU 0 instructions: 50000001 cycles: 14667175 heartbeat IPC: 3.37689 cumulative IPC: 3.40897 (Simulation time: 0 hr 15 min 47 sec) 
Heartbeat CPU 1 instructions: 30000002 cycles: 15862438 heartbeat IPC: 1.89133 cumulative IPC: 1.89126 (Simulation time: 0 hr 16 min 44 sec) 
Heartbeat CPU 3 instructions: 50000000 cycles: 16168603 heartbeat IPC: 3.10198 cumulative IPC: 3.09241 (Simulation time: 0 hr 16 min 59 sec) 
Heartbeat CPU 0 instructions: 60000000 cycles: 17865025 heartbeat IPC: 3.1271 cumulative IPC: 0.559753 (Simulation time: 0 hr 18 min 39 sec) 
Heartbeat CPU 2 instructions: 50000003 cycles: 17932613 heartbeat IPC: 2.78854 cumulative IPC: 2.78822 (Simulation time: 0 hr 18 min 43 sec) 
Heartbeat CPU 3 instructions: 60000000 cycles: 19405384 heartbeat IPC: 3.08949 cumulative IPC: 0.515321 (Simulation time: 0 hr 20 min 7 sec) 
Heartbeat CPU 2 instructions: 60000003 cycles: 20935493 heartbeat IPC: 3.33014 cumulative IPC: 0.477658 (Simulation time: 0 hr 21 min 38 sec) 
Heartbeat CPU 0 instructions: 70000000 cycles: 21090887 heartbeat IPC: 3.09995 cumulative IPC: 0.948277 (Simulation time: 0 hr 21 min 48 sec) 
Heartbeat CPU 1 instructions: 40000002 cycles: 21097457 heartbeat IPC: 1.91021 cumulative IPC: 1.89596 (Simulation time: 0 hr 21 min 48 sec) 
Heartbeat CPU 3 instructions: 70000000 cycles: 22758512 heartbeat IPC: 2.98229 cumulative IPC: 0.878792 (Simulation time: 0 hr 23 min 30 sec) 
Heartbeat CPU 2 instructions: 70000000 cycles: 23772276 heartbeat IPC: 3.52512 cumulative IPC: 0.841316 (Simulation time: 0 hr 24 min 26 sec) 
Heartbeat CPU 0 instructions: 80000001 cycles: 24267361 heartbeat IPC: 3.14815 cumulative IPC: 1.23623 (Simulation time: 0 hr 24 min 51 sec) 
Heartbeat CPU 3 instructions: 80000002 cycles: 25990257 heartbeat IPC: 3.0943 cumulative IPC: 1.15428 (Simulation time: 0 hr 26 min 34 sec) 
Heartbeat CPU 1 instructions: 50000001 cycles: 26316471 heartbeat IPC: 1.91607 cumulative IPC: 1.89995 (Simulation time: 0 hr 26 min 54 sec) 

Warmup complete CPU 0 instructions: 86428997 cycles: 26316471 (Simulation time: 0 hr 26 min 54 sec) 
Warmup complete CPU 1 instructions: 50000001 cycles: 26316471 (Simulation time: 0 hr 26 min 54 sec) 
Warmup complete CPU 2 instructions: 78964022 cycles: 26316470 (Simulation time: 0 hr 26 min 54 sec) 
Warmup complete CPU 3 instructions: 81010272 cycles: 26316470 (Simulation time: 0 hr 26 min 54 sec) 

Heartbeat CPU 2 instructions: 80000001 cycles: 26995947 heartbeat IPC: 3.10205 cumulative IPC: 1.52467 (Simulation time: 0 hr 27 min 9 sec) 
Heartbeat CPU 2 instructions: 90000000 cycles: 33209822 heartbeat IPC: 1.6093 cumulative IPC: 1.60096 (Simulation time: 0 hr 29 min 33 sec) 
Heartbeat CPU 1 instructions: 60000003 cycles: 36877121 heartbeat IPC: 0.946912 cumulative IPC: 0.946912 (Simulation time: 0 hr 30 min 55 sec) 
Heartbeat CPU 2 instructions: 100000003 cycles: 39547018 heartbeat IPC: 1.57799 cumulative IPC: 1.58996 (Simulation time: 0 hr 31 min 58 sec) 
Heartbeat CPU 3 instructions: 90000000 cycles: 45440438 heartbeat IPC: 0.514134 cumulative IPC: 0.470077 (Simulation time: 0 hr 34 min 15 sec) 
Heartbeat CPU 2 instructions: 110000000 cycles: 45899061 heartbeat IPC: 1.5743 cumulative IPC: 1.58488 (Simulation time: 0 hr 34 min 25 sec) 
Heartbeat CPU 1 instructions: 70000002 cycles: 47484126 heartbeat IPC: 0.942773 cumulative IPC: 0.944838 (Simulation time: 0 hr 34 min 59 sec) 
Heartbeat CPU 0 instructions: 90000000 cycles: 47820409 heartbeat IPC: 0.424573 cumulative IPC: 0.166063 (Simulation time: 0 hr 35 min 7 sec) 
Heartbeat CPU 2 instructions: 120000000 cycles: 52322407 heartbeat IPC: 1.55682 cumulative IPC: 1.57795 (Simulation time: 0 hr 36 min 49 sec) 
Heartbeat CPU 1 instructions: 80000000 cycles: 58115926 heartbeat IPC: 0.940574 cumulative IPC: 0.943412 (Simulation time: 0 hr 38 min 47 sec) 
Heartbeat CPU 2 instructions: 130000000 cycles: 58841096 heartbeat IPC: 1.53405 cumulative IPC: 1.56915 (Simulation time: 0 hr 39 min 2 sec) 
Heartbeat CPU 2 instructions: 140000002 cycles: 65389052 heartbeat IPC: 1.52719 cumulative IPC: 1.56212 (Simulation time: 0 hr 41 min 15 sec) 
Heartbeat CPU 1 instructions: 90000000 cycles: 68794969 heartbeat IPC: 0.936414 cumulative IPC: 0.941653 (Simulation time: 0 hr 42 min 22 sec) 
Heartbeat CPU 2 instructions: 150000000 cycles: 71957506 heartbeat IPC: 1.52243 cumulative IPC: 1.55641 (Simulation time: 0 hr 43 min 32 sec) 
Heartbeat CPU 3 instructions: 100000000 cycles: 77810687 heartbeat IPC: 0.308926 cumulative IPC: 0.368774 (Simulation time: 0 hr 45 min 48 sec) 
Heartbeat CPU 2 instructions: 160000002 cycles: 78271032 heartbeat IPC: 1.5839 cumulative IPC: 1.55975 (Simulation time: 0 hr 46 min 0 sec) 
Heartbeat CPU 1 instructions: 100000002 cycles: 79430878 heartbeat IPC: 0.940211 cumulative IPC: 0.941364 (Simulation time: 0 hr 46 min 25 sec) 
Heartbeat CPU 2 instructions: 170000000 cycles: 84635799 heartbeat IPC: 1.57115 cumulative IPC: 1.56099 (Simulation time: 0 hr 48 min 23 sec) 
Heartbeat CPU 1 instructions: 110000000 cycles: 90065725 heartbeat IPC: 0.940305 cumulative IPC: 0.941187 (Simulation time: 0 hr 50 min 23 sec) 
Heartbeat CPU 2 instructions: 180000001 cycles: 90981525 heartbeat IPC: 1.57586 cumulative IPC: 1.56245 (Simulation time: 0 hr 50 min 41 sec) 
Heartbeat CPU 0 instructions: 100000001 cycles: 95361265 heartbeat IPC: 0.210345 cumulative IPC: 0.196554 (Simulation time: 0 hr 52 min 23 sec) 
Heartbeat CPU 2 instructions: 190000001 cycles: 97272954 heartbeat IPC: 1.58946 cumulative IPC: 1.56485 (Simulation time: 0 hr 53 min 6 sec) 
Heartbeat CPU 3 instructions: 110000000 cycles: 98508928 heartbeat IPC: 0.483133 cumulative IPC: 0.401562 (Simulation time: 0 hr 53 min 34 sec) 
Heartbeat CPU 1 instructions: 120000000 cycles: 100573564 heartbeat IPC: 0.95167 cumulative IPC: 0.942671 (Simulation time: 0 hr 54 min 22 sec) 
Heartbeat CPU 2 instructions: 200000002 cycles: 103480946 heartbeat IPC: 1.61083 cumulative IPC: 1.56855 (Simulation time: 0 hr 55 min 28 sec) 
Heartbeat CPU 2 instructions: 210000003 cycles: 109721056 heartbeat IPC: 1.60254 cumulative IPC: 1.57109 (Simulation time: 0 hr 57 min 53 sec) 
Heartbeat CPU 1 instructions: 130000000 cycles: 111178531 heartbeat IPC: 0.942954 cumulative IPC: 0.942706 (Simulation time: 0 hr 58 min 23 sec) 
Heartbeat CPU 2 instructions: 220000000 cycles: 116044231 heartbeat IPC: 1.58148 cumulative IPC: 1.57182 (Simulation time: 1 hr 0 min 15 sec) 
Heartbeat CPU 3 instructions: 120000000 cycles: 119671677 heartbeat IPC: 0.472528 cumulative IPC: 0.417649 (Simulation time: 1 hr 1 min 38 sec) 
Heartbeat CPU 1 instructions: 140000002 cycles: 120803840 heartbeat IPC: 1.03893 cumulative IPC: 0.952508 (Simulation time: 1 hr 2 min 4 sec) 
Heartbeat CPU 2 instructions: 230000001 cycles: 122376027 heartbeat IPC: 1.57933 cumulative IPC: 1.57232 (Simulation time: 1 hr 2 min 41 sec) 
Heartbeat CPU 2 instructions: 240000000 cycles: 128878961 heartbeat IPC: 1.53777 cumulative IPC: 1.57013 (Simulation time: 1 hr 5 min 10 sec) 
Heartbeat CPU 1 instructions: 150000000 cycles: 130943602 heartbeat IPC: 0.986216 cumulative IPC: 0.955775 (Simulation time: 1 hr 5 min 57 sec) 
Heartbeat CPU 2 instructions: 250000000 cycles: 135201554 heartbeat IPC: 1.58163 cumulative IPC: 1.57079 (Simulation time: 1 hr 7 min 21 sec) 
Heartbeat CPU 1 instructions: 160000003 cycles: 141456944 heartbeat IPC: 0.951173 cumulative IPC: 0.955355 (Simulation time: 1 hr 9 min 44 sec) 
Heartbeat CPU 2 instructions: 260000000 cycles: 141489692 heartbeat IPC: 1.5903 cumulative IPC: 1.57186 (Simulation time: 1 hr 9 min 45 sec) 
Heartbeat CPU 3 instructions: 130000001 cycles: 143639830 heartbeat IPC: 0.41722 cumulative IPC: 0.417562 (Simulation time: 1 hr 10 min 36 sec) 
Heartbeat CPU 0 instructions: 110000000 cycles: 147566903 heartbeat IPC: 0.19155 cumulative IPC: 0.194399 (Simulation time: 1 hr 12 min 7 sec) 
Heartbeat CPU 2 instructions: 270000001 cycles: 147812739 heartbeat IPC: 1.58152 cumulative IPC: 1.57236 (Simulation time: 1 hr 12 min 14 sec) 
Heartbeat CPU 1 instructions: 170000000 cycles: 152100925 heartbeat IPC: 0.939498 cumulative IPC: 0.954013 (Simulation time: 1 hr 13 min 55 sec) 
Finished CPU 2 instructions: 200000002 cycles: 127119952 cumulative IPC: 1.57332 (Simulation time: 1 hr 14 min 25 sec) 
Heartbeat CPU 2 instructions: 280000002 cycles: 154098035 heartbeat IPC: 1.59102 cumulative IPC: 1.57328 (Simulation time: 1 hr 14 min 41 sec) 
Heartbeat CPU 2 instructions: 290000000 cycles: 160391768 heartbeat IPC: 1.58888 cumulative IPC: 1.57401 (Simulation time: 1 hr 17 min 8 sec) 
Heartbeat CPU 1 instructions: 180000001 cycles: 162562094 heartbeat IPC: 0.955916 cumulative IPC: 0.954159 (Simulation time: 1 hr 18 min 1 sec) 
Heartbeat CPU 3 instructions: 140000001 cycles: 164554777 heartbeat IPC: 0.478127 cumulative IPC: 0.426725 (Simulation time: 1 hr 18 min 50 sec) 
Heartbeat CPU 2 instructions: 300000001 cycles: 166638318 heartbeat IPC: 1.60088 cumulative IPC: 1.57521 (Simulation time: 1 hr 19 min 39 sec) 
Heartbeat CPU 2 instructions: 310000002 cycles: 173042840 heartbeat IPC: 1.5614 cumulative IPC: 1.5746 (Simulation time: 1 hr 22 min 10 sec) 
Heartbeat CPU 1 instructions: 190000000 cycles: 173128597 heartbeat IPC: 0.946387 cumulative IPC: 0.9536 (Simulation time: 1 hr 22 min 11 sec) 
Heartbeat CPU 2 instructions: 320000002 cycles: 179320083 heartbeat IPC: 1.59306 cumulative IPC: 1.57536 (Simulation time: 1 hr 24 min 30 sec) 
Heartbeat CPU 1 instructions: 200000001 cycles: 183606786 heartbeat IPC: 0.954363 cumulative IPC: 0.953651 (Simulation time: 1 hr 26 min 9 sec) 
Heartbeat CPU 2 instructions: 330000000 cycles: 185499884 heartbeat IPC: 1.61817 cumulative IPC: 1.57702 (Simulation time: 1 hr 26 min 53 sec) 
Heartbeat CPU 3 instructions: 150000000 cycles: 185781865 heartbeat IPC: 0.471096 cumulative IPC: 0.432631 (Simulation time: 1 hr 26 min 59 sec) 
Heartbeat CPU 2 instructions: 340000003 cycles: 191919497 heartbeat IPC: 1.55773 cumulative IPC: 1.57628 (Simulation time: 1 hr 29 min 18 sec) 
Heartbeat CPU 1 instructions: 210000000 cycles: 194082901 heartbeat IPC: 0.954552 cumulative IPC: 0.953707 (Simulation time: 1 hr 30 min 10 sec) 
Heartbeat CPU 2 instructions: 350000000 cycles: 198112101 heartbeat IPC: 1.61483 cumulative IPC: 1.57767 (Simulation time: 1 hr 31 min 43 sec) 
Heartbeat CPU 0 instructions: 120000000 cycles: 199669002 heartbeat IPC: 0.191931 cumulative IPC: 0.193657 (Simulation time: 1 hr 32 min 18 sec) 
Heartbeat CPU 2 instructions: 360000003 cycles: 204437891 heartbeat IPC: 1.58083 cumulative IPC: 1.57778 (Simulation time: 1 hr 34 min 4 sec) 
Heartbeat CPU 1 instructions: 220000000 cycles: 204566441 heartbeat IPC: 0.953876 cumulative IPC: 0.953717 (Simulation time: 1 hr 34 min 7 sec) 
Heartbeat CPU 3 instructions: 160000003 cycles: 207541039 heartbeat IPC: 0.459576 cumulative IPC: 0.435867 (Simulation time: 1 hr 35 min 15 sec) 
Heartbeat CPU 2 instructions: 370000003 cycles: 210769867 heartbeat IPC: 1.57929 cumulative IPC: 1.57783 (Simulation time: 1 hr 36 min 32 sec) 
Heartbeat CPU 1 instructions: 230000003 cycles: 215096170 heartbeat IPC: 0.949692 cumulative IPC: 0.953492 (Simulation time: 1 hr 38 min 12 sec) 
Heartbeat CPU 2 instructions: 380000002 cycles: 217121622 heartbeat IPC: 1.57437 cumulative IPC: 1.57771 (Simulation time: 1 hr 38 min 56 sec) 
Heartbeat CPU 2 instructions: 390000003 cycles: 223411504 heartbeat IPC: 1.58986 cumulative IPC: 1.5781 (Simulation time: 1 hr 41 min 26 sec) 
Heartbeat CPU 1 instructions: 240000000 cycles: 225597998 heartbeat IPC: 0.952215 cumulative IPC: 0.953425 (Simulation time: 1 hr 42 min 17 sec) 
Heartbeat CPU 3 instructions: 170000000 cycles: 228390550 heartbeat IPC: 0.479627 cumulative IPC: 0.440382 (Simulation time: 1 hr 43 min 24 sec) 
Heartbeat CPU 2 instructions: 400000000 cycles: 229627702 heartbeat IPC: 1.6087 cumulative IPC: 1.57904 (Simulation time: 1 hr 43 min 54 sec) 
Heartbeat CPU 2 instructions: 410000002 cycles: 235866030 heartbeat IPC: 1.60299 cumulative IPC: 1.57975 (Simulation time: 1 hr 46 min 24 sec) 
Heartbeat CPU 1 instructions: 250000002 cycles: 236053427 heartbeat IPC: 0.956441 cumulative IPC: 0.953575 (Simulation time: 1 hr 46 min 28 sec) 
Finished CPU 1 instructions: 200000001 cycles: 209736956 cumulative IPC: 0.953575 (Simulation time: 1 hr 46 min 28 sec) 
Heartbeat CPU 2 instructions: 420000001 cycles: 242056787 heartbeat IPC: 1.61531 cumulative IPC: 1.58077 (Simulation time: 1 hr 48 min 27 sec) 
Heartbeat CPU 2 instructions: 430000001 cycles: 248995195 heartbeat IPC: 1.44125 cumulative IPC: 1.57642 (Simulation time: 1 hr 50 min 24 sec) 
Heartbeat CPU 3 instructions: 180000000 cycles: 250029049 heartbeat IPC: 0.462139 cumulative IPC: 0.442486 (Simulation time: 1 hr 50 min 47 sec) 
Heartbeat CPU 0 instructions: 130000001 cycles: 250357755 heartbeat IPC: 0.197282 cumulative IPC: 0.194478 (Simulation time: 1 hr 50 min 55 sec) 
Heartbeat CPU 1 instructions: 260000002 cycles: 253266682 heartbeat IPC: 0.580948 cumulative IPC: 0.925313 (Simulation time: 1 hr 52 min 0 sec) 
Heartbeat CPU 2 instructions: 440000000 cycles: 255279851 heartbeat IPC: 1.59118 cumulative IPC: 1.57683 (Simulation time: 1 hr 52 min 34 sec) 
Heartbeat CPU 2 instructions: 450000001 cycles: 262163781 heartbeat IPC: 1.45266 cumulative IPC: 1.5732 (Simulation time: 1 hr 54 min 40 sec) 
Heartbeat CPU 2 instructions: 460000001 cycles: 268889567 heartbeat IPC: 1.48682 cumulative IPC: 1.57081 (Simulation time: 1 hr 56 min 43 sec) 
Heartbeat CPU 1 instructions: 270000000 cycles: 272954716 heartbeat IPC: 0.507923 cumulative IPC: 0.891995 (Simulation time: 1 hr 58 min 13 sec) 
Heartbeat CPU 3 instructions: 190000002 cycles: 273098273 heartbeat IPC: 0.433478 cumulative IPC: 0.441644 (Simulation time: 1 hr 58 min 16 sec) 
Heartbeat CPU 2 instructions: 470000000 cycles: 275266528 heartbeat IPC: 1.56814 cumulative IPC: 1.57074 (Simulation time: 1 hr 58 min 54 sec) 
Heartbeat CPU 2 instructions: 480000003 cycles: 281999184 heartbeat IPC: 1.4853 cumulative IPC: 1.56849 (Simulation time: 2 hr 0 min 58 sec) 
Heartbeat CPU 2 instructions: 490000001 cycles: 288126205 heartbeat IPC: 1.63211 cumulative IPC: 1.56998 (Simulation time: 2 hr 3 min 7 sec) 
Heartbeat CPU 1 instructions: 280000000 cycles: 289400447 heartbeat IPC: 0.608061 cumulative IPC: 0.874246 (Simulation time: 2 hr 3 min 38 sec) 
Heartbeat CPU 0 instructions: 140000001 cycles: 294058065 heartbeat IPC: 0.228831 cumulative IPC: 0.200085 (Simulation time: 2 hr 5 min 22 sec) 
Heartbeat CPU 2 instructions: 500000000 cycles: 294235874 heartbeat IPC: 1.63675 cumulative IPC: 1.5715 (Simulation time: 2 hr 5 min 26 sec) 
Heartbeat CPU 3 instructions: 200000001 cycles: 294671672 heartbeat IPC: 0.463534 cumulative IPC: 0.443404 (Simulation time: 2 hr 5 min 37 sec) 
Heartbeat CPU 2 instructions: 510000002 cycles: 300321735 heartbeat IPC: 1.64315 cumulative IPC: 1.57309 (Simulation time: 2 hr 7 min 38 sec) 
Heartbeat CPU 1 instructions: 290000002 cycles: 302105034 heartbeat IPC: 0.787117 cumulative IPC: 0.870232 (Simulation time: 2 hr 8 min 19 sec) 
Heartbeat CPU 2 instructions: 520000003 cycles: 306605019 heartbeat IPC: 1.59152 cumulative IPC: 1.57351 (Simulation time: 2 hr 9 min 57 sec) 
Heartbeat CPU 2 instructions: 530000001 cycles: 312696740 heartbeat IPC: 1.64157 cumulative IPC: 1.57495 (Simulation time: 2 hr 12 min 7 sec) 
Heartbeat CPU 3 instructions: 210000000 cycles: 315359931 heartbeat IPC: 0.483366 cumulative IPC: 0.446264 (Simulation time: 2 hr 13 min 3 sec) 
Heartbeat CPU 1 instructions: 300000000 cycles: 315629856 heartbeat IPC: 0.739381 cumulative IPC: 0.864115 (Simulation time: 2 hr 13 min 10 sec) 
Heartbeat CPU 2 instructions: 540000001 cycles: 318816849 heartbeat IPC: 1.63396 cumulative IPC: 1.57619 (Simulation time: 2 hr 14 min 18 sec) 
Heartbeat CPU 2 instructions: 550000000 cycles: 324896642 heartbeat IPC: 1.64479 cumulative IPC: 1.57759 (Simulation time: 2 hr 16 min 32 sec) 
Heartbeat CPU 1 instructions: 310000003 cycles: 328495239 heartbeat IPC: 0.77728 cumulative IPC: 0.860418 (Simulation time: 2 hr 17 min 47 sec) 
Heartbeat CPU 0 instructions: 150000001 cycles: 328892330 heartbeat IPC: 0.287074 cumulative IPC: 0.210099 (Simulation time: 2 hr 17 min 54 sec) 
Heartbeat CPU 2 instructions: 560000002 cycles: 331385634 heartbeat IPC: 1.54107 cumulative IPC: 1.57681 (Simulation time: 2 hr 18 min 34 sec) 
Heartbeat CPU 3 instructions: 220000000 cycles: 337150443 heartbeat IPC: 0.458915 cumulative IPC: 0.447151 (Simulation time: 2 hr 20 min 17 sec) 
Heartbeat CPU 2 instructions: 570000003 cycles: 337888781 heartbeat IPC: 1.53772 cumulative IPC: 1.57599 (Simulation time: 2 hr 20 min 32 sec) 
Heartbeat CPU 2 instructions: 580000001 cycles: 344224678 heartbeat IPC: 1.57831 cumulative IPC: 1.57604 (Simulation time: 2 hr 22 min 41 sec) 
Heartbeat CPU 2 instructions: 590000000 cycles: 350706784 heartbeat IPC: 1.54271 cumulative IPC: 1.57537 (Simulation time: 2 hr 24 min 53 sec) 
Heartbeat CPU 2 instructions: 600000000 cycles: 357058075 heartbeat IPC: 1.57448 cumulative IPC: 1.57536 (Simulation time: 2 hr 27 min 0 sec) 
Heartbeat CPU 3 instructions: 230000002 cycles: 358109771 heartbeat IPC: 0.477115 cumulative IPC: 0.449044 (Simulation time: 2 hr 27 min 21 sec) 
Heartbeat CPU 1 instructions: 320000002 cycles: 358693129 heartbeat IPC: 0.331149 cumulative IPC: 0.812331 (Simulation time: 2 hr 27 min 32 sec) 
Heartbeat CPU 2 instructions: 610000003 cycles: 363417180 heartbeat IPC: 1.57255 cumulative IPC: 1.5753 (Simulation time: 2 hr 29 min 9 sec) 
Heartbeat CPU 2 instructions: 620000001 cycles: 369901754 heartbeat IPC: 1.54212 cumulative IPC: 1.57468 (Simulation time: 2 hr 31 min 15 sec) 
Heartbeat CPU 0 instructions: 160000001 cycles: 373697748 heartbeat IPC: 0.223187 cumulative IPC: 0.211787 (Simulation time: 2 hr 32 min 30 sec) 
Heartbeat CPU 2 instructions: 630000001 cycles: 376314375 heartbeat IPC: 1.55942 cumulative IPC: 1.5744 (Simulation time: 2 hr 33 min 22 sec) 
Heartbeat CPU 3 instructions: 240000001 cycles: 379431505 heartbeat IPC: 0.469005 cumulative IPC: 0.450249 (Simulation time: 2 hr 34 min 19 sec) 
Heartbeat CPU 2 instructions: 640000000 cycles: 382599080 heartbeat IPC: 1.59116 cumulative IPC: 1.57469 (Simulation time: 2 hr 35 min 19 sec) 
Heartbeat CPU 1 instructions: 330000000 cycles: 388821672 heartbeat IPC: 0.331911 cumulative IPC: 0.772403 (Simulation time: 2 hr 37 min 10 sec) 
Heartbeat CPU 2 instructions: 650000002 cycles: 388885787 heartbeat IPC: 1.59066 cumulative IPC: 1.57497 (Simulation time: 2 hr 37 min 11 sec) 
Heartbeat CPU 2 instructions: 660000000 cycles: 395375965 heartbeat IPC: 1.54079 cumulative IPC: 1.57437 (Simulation time: 2 hr 39 min 17 sec) 
Heartbeat CPU 2 instructions: 670000003 cycles: 401691686 heartbeat IPC: 1.58335 cumulative IPC: 1.57452 (Simulation time: 2 hr 41 min 23 sec) 
Heartbeat CPU 3 instructions: 250000002 cycles: 401859787 heartbeat IPC: 0.445866 cumulative IPC: 0.449987 (Simulation time: 2 hr 41 min 26 sec) 
Heartbeat CPU 2 instructions: 680000002 cycles: 407883872 heartbeat IPC: 1.61494 cumulative IPC: 1.57518 (Simulation time: 2 hr 43 min 45 sec) 
Heartbeat CPU 1 instructions: 340000000 cycles: 409290879 heartbeat IPC: 0.488539 cumulative IPC: 0.757231 (Simulation time: 2 hr 44 min 21 sec) 
Heartbeat CPU 2 instructions: 690000002 cycles: 413985875 heartbeat IPC: 1.63881 cumulative IPC: 1.57618 (Simulation time: 2 hr 46 min 15 sec) 
Heartbeat CPU 0 instructions: 170000000 cycles: 414920144 heartbeat IPC: 0.242587 cumulative IPC: 0.215055 (Simulation time: 2 hr 46 min 38 sec) 
Heartbeat CPU 2 instructions: 700000001 cycles: 420309204 heartbeat IPC: 1.58145 cumulative IPC: 1.57626 (Simulation time: 2 hr 48 min 49 sec) 
Heartbeat CPU 1 instructions: 350000003 cycles: 421189395 heartbeat IPC: 0.840441 cumulative IPC: 0.759738 (Simulation time: 2 hr 49 min 13 sec) 
Heartbeat CPU 3 instructions: 260000000 cycles: 422515760 heartbeat IPC: 0.484121 cumulative IPC: 0.451767 (Simulation time: 2 hr 49 min 49 sec) 
Heartbeat CPU 2 instructions: 710000003 cycles: 426558648 heartbeat IPC: 1.60014 cumulative IPC: 1.57664 (Simulation time: 2 hr 51 min 26 sec) 
Heartbeat CPU 2 instructions: 720000002 cycles: 432707840 heartbeat IPC: 1.62623 cumulative IPC: 1.57739 (Simulation time: 2 hr 53 min 49 sec) 
Heartbeat CPU 1 instructions: 360000003 cycles: 432854850 heartbeat IPC: 0.857232 cumulative IPC: 0.762536 (Simulation time: 2 hr 53 min 53 sec) 
Heartbeat CPU 2 instructions: 730000000 cycles: 438838091 heartbeat IPC: 1.63125 cumulative IPC: 1.57819 (Simulation time: 2 hr 56 min 2 sec) 
Heartbeat CPU 3 instructions: 270000000 cycles: 443033595 heartbeat IPC: 0.487381 cumulative IPC: 0.45352 (Simulation time: 2 hr 57 min 37 sec) 
Heartbeat CPU 2 instructions: 740000001 cycles: 444916047 heartbeat IPC: 1.64529 cumulative IPC: 1.57916 (Simulation time: 2 hr 58 min 20 sec) 
Heartbeat CPU 1 instructions: 370000000 cycles: 445291527 heartbeat IPC: 0.804073 cumulative IPC: 0.763769 (Simulation time: 2 hr 58 min 28 sec) 
Heartbeat CPU 2 instructions: 750000001 cycles: 450963790 heartbeat IPC: 1.65351 cumulative IPC: 1.58022 (Simulation time: 3 hr 0 min 32 sec) 
Heartbeat CPU 0 instructions: 180000001 cycles: 451250499 heartbeat IPC: 0.275252 cumulative IPC: 0.220201 (Simulation time: 3 hr 0 min 39 sec) 
Heartbeat CPU 2 instructions: 760000002 cycles: 456975474 heartbeat IPC: 1.66343 cumulative IPC: 1.58138 (Simulation time: 3 hr 2 min 50 sec) 
Heartbeat CPU 1 instructions: 380000000 cycles: 457929579 heartbeat IPC: 0.791261 cumulative IPC: 0.764574 (Simulation time: 3 hr 3 min 10 sec) 
Heartbeat CPU 2 instructions: 770000000 cycles: 463042421 heartbeat IPC: 1.64828 cumulative IPC: 1.58231 (Simulation time: 3 hr 5 min 5 sec) 
Heartbeat CPU 3 instructions: 280000001 cycles: 463476988 heartbeat IPC: 0.489156 cumulative IPC: 0.455187 (Simulation time: 3 hr 5 min 14 sec) 
Finished CPU 3 instructions: 200000003 cycles: 439206301 cumulative IPC: 0.455367 (Simulation time: 3 hr 6 min 1 sec) 
Heartbeat CPU 2 instructions: 780000000 cycles: 469044461 heartbeat IPC: 1.6661 cumulative IPC: 1.58345 (Simulation time: 3 hr 7 min 19 sec) 
Heartbeat CPU 1 instructions: 390000001 cycles: 471176581 heartbeat IPC: 0.754888 cumulative IPC: 0.764285 (Simulation time: 3 hr 8 min 2 sec) 
Heartbeat CPU 2 instructions: 790000000 cycles: 475225633 heartbeat IPC: 1.61782 cumulative IPC: 1.58392 (Simulation time: 3 hr 9 min 16 sec) 
Heartbeat CPU 2 instructions: 800000002 cycles: 481812743 heartbeat IPC: 1.51812 cumulative IPC: 1.58297 (Simulation time: 3 hr 11 min 20 sec) 
Heartbeat CPU 3 instructions: 290000002 cycles: 484435618 heartbeat IPC: 0.47713 cumulative IPC: 0.456191 (Simulation time: 3 hr 12 min 8 sec) 
Heartbeat CPU 2 instructions: 810000002 cycles: 488061095 heartbeat IPC: 1.60042 cumulative IPC: 1.5832 (Simulation time: 3 hr 13 min 14 sec) 
Heartbeat CPU 2 instructions: 820000000 cycles: 494294751 heartbeat IPC: 1.60419 cumulative IPC: 1.58348 (Simulation time: 3 hr 15 min 14 sec) 
Heartbeat CPU 1 instructions: 400000002 cycles: 499636405 heartbeat IPC: 0.351373 cumulative IPC: 0.739458 (Simulation time: 3 hr 16 min 56 sec) 
Heartbeat CPU 2 instructions: 830000002 cycles: 500460832 heartbeat IPC: 1.62178 cumulative IPC: 1.58398 (Simulation time: 3 hr 17 min 12 sec) 
Heartbeat CPU 3 instructions: 300000000 cycles: 506021650 heartbeat IPC: 0.463262 cumulative IPC: 0.456509 (Simulation time: 3 hr 19 min 1 sec) 
Heartbeat CPU 0 instructions: 190000001 cycles: 506050176 heartbeat IPC: 0.182483 cumulative IPC: 0.215893 (Simulation time: 3 hr 19 min 1 sec) 
Heartbeat CPU 2 instructions: 840000000 cycles: 506677228 heartbeat IPC: 1.60865 cumulative IPC: 1.5843 (Simulation time: 3 hr 19 min 14 sec) 
Heartbeat CPU 2 instructions: 850000000 cycles: 512885695 heartbeat IPC: 1.6107 cumulative IPC: 1.58464 (Simulation time: 3 hr 21 min 13 sec) 
Heartbeat CPU 2 instructions: 860000000 cycles: 519106695 heartbeat IPC: 1.60746 cumulative IPC: 1.58493 (Simulation time: 3 hr 23 min 15 sec) 
Heartbeat CPU 2 instructions: 870000001 cycles: 525421290 heartbeat IPC: 1.58363 cumulative IPC: 1.58491 (Simulation time: 3 hr 25 min 20 sec) 
Heartbeat CPU 3 instructions: 310000000 cycles: 526593833 heartbeat IPC: 0.486093 cumulative IPC: 0.457726 (Simulation time: 3 hr 25 min 39 sec) 
Heartbeat CPU 1 instructions: 410000000 cycles: 528209454 heartbeat IPC: 0.34998 cumulative IPC: 0.717284 (Simulation time: 3 hr 26 min 9 sec) 
Heartbeat CPU 2 instructions: 880000000 cycles: 531616784 heartbeat IPC: 1.61408 cumulative IPC: 1.58527 (Simulation time: 3 hr 27 min 18 sec) 
Heartbeat CPU 2 instructions: 890000003 cycles: 537799260 heartbeat IPC: 1.61748 cumulative IPC: 1.58566 (Simulation time: 3 hr 29 min 16 sec) 
Heartbeat CPU 2 instructions: 900000001 cycles: 544032026 heartbeat IPC: 1.60442 cumulative IPC: 1.58588 (Simulation time: 3 hr 31 min 28 sec) 
Heartbeat CPU 1 instructions: 420000002 cycles: 546537925 heartbeat IPC: 0.545599 cumulative IPC: 0.711236 (Simulation time: 3 hr 32 min 18 sec) 
Heartbeat CPU 3 instructions: 320000001 cycles: 547740733 heartbeat IPC: 0.472883 cumulative IPC: 0.45834 (Simulation time: 3 hr 32 min 45 sec) 
Heartbeat CPU 2 instructions: 910000001 cycles: 550122937 heartbeat IPC: 1.64179 cumulative IPC: 1.58653 (Simulation time: 3 hr 33 min 42 sec) 
Heartbeat CPU 0 instructions: 200000000 cycles: 553510935 heartbeat IPC: 0.2107 cumulative IPC: 0.215425 (Simulation time: 3 hr 34 min 58 sec) 
Heartbeat CPU 2 instructions: 920000001 cycles: 556184802 heartbeat IPC: 1.64966 cumulative IPC: 1.58725 (Simulation time: 3 hr 35 min 56 sec) 
Heartbeat CPU 1 instructions: 430000003 cycles: 558751518 heartbeat IPC: 0.81876 cumulative IPC: 0.713702 (Simulation time: 3 hr 36 min 58 sec) 
Heartbeat CPU 2 instructions: 930000001 cycles: 562328258 heartbeat IPC: 1.62775 cumulative IPC: 1.58772 (Simulation time: 3 hr 38 min 20 sec) 
Heartbeat CPU 2 instructions: 940000000 cycles: 568528680 heartbeat IPC: 1.61279 cumulative IPC: 1.58801 (Simulation time: 3 hr 40 min 51 sec) 
Heartbeat CPU 3 instructions: 330000000 cycles: 568819089 heartbeat IPC: 0.47442 cumulative IPC: 0.458965 (Simulation time: 3 hr 40 min 58 sec) 
Heartbeat CPU 1 instructions: 440000000 cycles: 569250354 heartbeat IPC: 0.952486 cumulative IPC: 0.71832 (Simulation time: 3 hr 41 min 9 sec) 
Heartbeat CPU 2 instructions: 950000002 cycles: 574609166 heartbeat IPC: 1.64461 cumulative IPC: 1.58863 (Simulation time: 3 hr 43 min 14 sec) 
Heartbeat CPU 2 instructions: 960000002 cycles: 580663129 heartbeat IPC: 1.65181 cumulative IPC: 1.58932 (Simulation time: 3 hr 45 min 33 sec) 
Heartbeat CPU 1 instructions: 450000002 cycles: 581764164 heartbeat IPC: 0.799117 cumulative IPC: 0.72014 (Simulation time: 3 hr 45 min 59 sec) 
Heartbeat CPU 2 instructions: 970000000 cycles: 586664645 heartbeat IPC: 1.66625 cumulative IPC: 1.59015 (Simulation time: 3 hr 47 min 41 sec) 
Heartbeat CPU 3 instructions: 340000002 cycles: 589126330 heartbeat IPC: 0.492435 cumulative IPC: 0.460173 (Simulation time: 3 hr 48 min 29 sec) 
Heartbeat CPU 2 instructions: 980000000 cycles: 592694556 heartbeat IPC: 1.6584 cumulative IPC: 1.59087 (Simulation time: 3 hr 49 min 43 sec) 
Heartbeat CPU 1 instructions: 460000000 cycles: 594563179 heartbeat IPC: 0.78131 cumulative IPC: 0.721518 (Simulation time: 3 hr 50 min 22 sec) 
Heartbeat CPU 0 instructions: 210000000 cycles: 597127164 heartbeat IPC: 0.229272 cumulative IPC: 0.216483 (Simulation time: 3 hr 51 min 18 sec) 
Heartbeat CPU 2 instructions: 990000000 cycles: 598853185 heartbeat IPC: 1.62374 cumulative IPC: 1.59123 (Simulation time: 3 hr 51 min 56 sec) 
Heartbeat CPU 2 instructions: 1000000001 cycles: 604945544 heartbeat IPC: 1.6414 cumulative IPC: 1.59176 (Simulation time: 3 hr 54 min 14 sec) 
Heartbeat CPU 1 instructions: 470000000 cycles: 609527414 heartbeat IPC: 0.66826 cumulative IPC: 0.720151 (Simulation time: 3 hr 55 min 40 sec) 
Heartbeat CPU 3 instructions: 350000000 cycles: 609998322 heartbeat IPC: 0.479111 cumulative IPC: 0.46085 (Simulation time: 3 hr 55 min 49 sec) 
Heartbeat CPU 2 instructions: 1010000003 cycles: 611262260 heartbeat IPC: 1.5831 cumulative IPC: 1.59166 (Simulation time: 3 hr 56 min 11 sec) 
Heartbeat CPU 2 instructions: 1020000002 cycles: 617559020 heartbeat IPC: 1.58812 cumulative IPC: 1.59162 (Simulation time: 3 hr 58 min 5 sec) 
Heartbeat CPU 2 instructions: 1030000002 cycles: 623817139 heartbeat IPC: 1.59792 cumulative IPC: 1.59169 (Simulation time: 3 hr 59 min 59 sec) 
Heartbeat CPU 2 instructions: 1040000002 cycles: 630037125 heartbeat IPC: 1.60772 cumulative IPC: 1.59186 (Simulation time: 4 hr 1 min 51 sec) 
Heartbeat CPU 3 instructions: 360000000 cycles: 631341792 heartbeat IPC: 0.468527 cumulative IPC: 0.461121 (Simulation time: 4 hr 2 min 15 sec) 
Heartbeat CPU 2 instructions: 1050000003 cycles: 636307171 heartbeat IPC: 1.59488 cumulative IPC: 1.59189 (Simulation time: 4 hr 3 min 49 sec) 
Heartbeat CPU 0 instructions: 220000000 cycles: 637540658 heartbeat IPC: 0.247442 cumulative IPC: 0.21853 (Simulation time: 4 hr 4 min 11 sec) 
Heartbeat CPU 1 instructions: 480000001 cycles: 640912894 heartbeat IPC: 0.318619 cumulative IPC: 0.699646 (Simulation time: 4 hr 5 min 13 sec) 
Heartbeat CPU 2 instructions: 1060000001 cycles: 642569119 heartbeat IPC: 1.59695 cumulative IPC: 1.59194 (Simulation time: 4 hr 5 min 42 sec) 
Heartbeat CPU 2 instructions: 1070000001 cycles: 648940472 heartbeat IPC: 1.56953 cumulative IPC: 1.59171 (Simulation time: 4 hr 7 min 35 sec) 
Heartbeat CPU 3 instructions: 370000000 cycles: 652098785 heartbeat IPC: 0.481765 cumulative IPC: 0.461806 (Simulation time: 4 hr 8 min 31 sec) 
Heartbeat CPU 2 instructions: 1080000001 cycles: 655474528 heartbeat IPC: 1.53044 cumulative IPC: 1.59107 (Simulation time: 4 hr 9 min 34 sec) 
Heartbeat CPU 2 instructions: 1090000002 cycles: 661714621 heartbeat IPC: 1.60254 cumulative IPC: 1.59118 (Simulation time: 4 hr 11 min 24 sec) 
Heartbeat CPU 2 instructions: 1100000000 cycles: 667939994 heartbeat IPC: 1.60633 cumulative IPC: 1.59133 (Simulation time: 4 hr 13 min 19 sec) 
Heartbeat CPU 1 instructions: 490000000 cycles: 672340642 heartbeat IPC: 0.31819 cumulative IPC: 0.681089 (Simulation time: 4 hr 14 min 41 sec) 
Heartbeat CPU 3 instructions: 380000002 cycles: 673471266 heartbeat IPC: 0.467891 cumulative IPC: 0.462007 (Simulation time: 4 hr 15 min 2 sec) 
Heartbeat CPU 2 instructions: 1110000001 cycles: 674184447 heartbeat IPC: 1.60142 cumulative IPC: 1.59143 (Simulation time: 4 hr 15 min 15 sec) 
Heartbeat CPU 2 instructions: 1120000003 cycles: 680434496 heartbeat IPC: 1.59999 cumulative IPC: 1.59151 (Simulation time: 4 hr 17 min 6 sec) 
Heartbeat CPU 0 instructions: 230000001 cycles: 685225004 heartbeat IPC: 0.209712 cumulative IPC: 0.217892 (Simulation time: 4 hr 18 min 40 sec) 
Heartbeat CPU 2 instructions: 1130000003 cycles: 686541121 heartbeat IPC: 1.63757 cumulative IPC: 1.59194 (Simulation time: 4 hr 19 min 7 sec) 
Heartbeat CPU 1 instructions: 500000003 cycles: 691626703 heartbeat IPC: 0.518509 cumulative IPC: 0.676376 (Simulation time: 4 hr 20 min 54 sec) 
Heartbeat CPU 2 instructions: 1140000001 cycles: 692592205 heartbeat IPC: 1.6526 cumulative IPC: 1.59249 (Simulation time: 4 hr 21 min 15 sec) 
Heartbeat CPU 3 instructions: 390000000 cycles: 693902570 heartbeat IPC: 0.489445 cumulative IPC: 0.462846 (Simulation time: 4 hr 21 min 43 sec) 
Heartbeat CPU 2 instructions: 1150000000 cycles: 698624443 heartbeat IPC: 1.65776 cumulative IPC: 1.59307 (Simulation time: 4 hr 23 min 26 sec) 
Heartbeat CPU 2 instructions: 1160000000 cycles: 704673874 heartbeat IPC: 1.65305 cumulative IPC: 1.59361 (Simulation time: 4 hr 25 min 29 sec) 
Heartbeat CPU 1 instructions: 510000002 cycles: 705673862 heartbeat IPC: 0.711888 cumulative IPC: 0.67711 (Simulation time: 4 hr 25 min 52 sec) 
Heartbeat CPU 2 instructions: 1170000002 cycles: 710694135 heartbeat IPC: 1.66106 cumulative IPC: 1.5942 (Simulation time: 4 hr 27 min 46 sec) 
Heartbeat CPU 3 instructions: 400000002 cycles: 714438377 heartbeat IPC: 0.486954 cumulative IPC: 0.463566 (Simulation time: 4 hr 29 min 9 sec) 
Heartbeat CPU 2 instructions: 1180000003 cycles: 716930581 heartbeat IPC: 1.60348 cumulative IPC: 1.59429 (Simulation time: 4 hr 30 min 0 sec) 
Heartbeat CPU 1 instructions: 520000003 cycles: 719260736 heartbeat IPC: 0.736005 cumulative IPC: 0.678265 (Simulation time: 4 hr 30 min 52 sec) 
Heartbeat CPU 2 instructions: 1190000002 cycles: 722947575 heartbeat IPC: 1.66196 cumulative IPC: 1.59487 (Simulation time: 4 hr 32 min 11 sec) 
Heartbeat CPU 2 instructions: 1200000001 cycles: 728962750 heartbeat IPC: 1.66246 cumulative IPC: 1.59545 (Simulation time: 4 hr 34 min 19 sec) 
Heartbeat CPU 0 instructions: 240000001 cycles: 729759023 heartbeat IPC: 0.224547 cumulative IPC: 0.218314 (Simulation time: 4 hr 34 min 37 sec) 
Heartbeat CPU 1 instructions: 530000000 cycles: 731762528 heartbeat IPC: 0.799885 cumulative IPC: 0.680421 (Simulation time: 4 hr 35 min 18 sec) 
Heartbeat CPU 2 instructions: 1210000000 cycles: 735013043 heartbeat IPC: 1.65281 cumulative IPC: 1.59594 (Simulation time: 4 hr 36 min 26 sec) 
Heartbeat CPU 3 instructions: 410000002 cycles: 735242401 heartbeat IPC: 0.480676 cumulative IPC: 0.464068 (Simulation time: 4 hr 36 min 31 sec) 
Heartbeat CPU 2 instructions: 1220000003 cycles: 741073224 heartbeat IPC: 1.65012 cumulative IPC: 1.5964 (Simulation time: 4 hr 38 min 40 sec) 
Heartbeat CPU 1 instructions: 540000002 cycles: 744796853 heartbeat IPC: 0.767205 cumulative IPC: 0.681995 (Simulation time: 4 hr 40 min 1 sec) 
Heartbeat CPU 2 instructions: 1230000003 cycles: 747150182 heartbeat IPC: 1.64556 cumulative IPC: 1.59681 (Simulation time: 4 hr 40 min 50 sec) 
Heartbeat CPU 2 instructions: 1240000000 cycles: 753206557 heartbeat IPC: 1.65115 cumulative IPC: 1.59726 (Simulation time: 4 hr 42 min 51 sec) 
Heartbeat CPU 3 instructions: 420000000 cycles: 758584647 heartbeat IPC: 0.428408 cumulative IPC: 0.462931 (Simulation time: 4 hr 44 min 37 sec) 
Heartbeat CPU 2 instructions: 1250000003 cycles: 759383579 heartbeat IPC: 1.6189 cumulative IPC: 1.59745 (Simulation time: 4 hr 44 min 52 sec) 
Heartbeat CPU 1 instructions: 550000000 cycles: 761619733 heartbeat IPC: 0.594428 cumulative IPC: 0.679992 (Simulation time: 4 hr 45 min 33 sec) 
Heartbeat CPU 2 instructions: 1260000000 cycles: 765618908 heartbeat IPC: 1.60376 cumulative IPC: 1.5975 (Simulation time: 4 hr 46 min 48 sec) 
Heartbeat CPU 0 instructions: 250000000 cycles: 767640240 heartbeat IPC: 0.263983 cumulative IPC: 0.220647 (Simulation time: 4 hr 47 min 25 sec) 
Heartbeat CPU 2 instructions: 1270000000 cycles: 772021629 heartbeat IPC: 1.56184 cumulative IPC: 1.59719 (Simulation time: 4 hr 48 min 40 sec) 
Heartbeat CPU 2 instructions: 1280000003 cycles: 778274921 heartbeat IPC: 1.59916 cumulative IPC: 1.59721 (Simulation time: 4 hr 50 min 30 sec) 
Heartbeat CPU 3 instructions: 430000001 cycles: 779396253 heartbeat IPC: 0.480501 cumulative IPC: 0.463417 (Simulation time: 4 hr 50 min 50 sec) 
Heartbeat CPU 2 instructions: 1290000000 cycles: 784582506 heartbeat IPC: 1.58539 cumulative IPC: 1.59711 (Simulation time: 4 hr 52 min 28 sec) 
Heartbeat CPU 2 instructions: 1300000003 cycles: 790789360 heartbeat IPC: 1.61112 cumulative IPC: 1.59723 (Simulation time: 4 hr 54 min 19 sec) 
Heartbeat CPU 1 instructions: 560000001 cycles: 793087542 heartbeat IPC: 0.317785 cumulative IPC: 0.665127 (Simulation time: 4 hr 55 min 0 sec) 
Heartbeat CPU 2 instructions: 1310000001 cycles: 797015338 heartbeat IPC: 1.60617 cumulative IPC: 1.5973 (Simulation time: 4 hr 56 min 12 sec) 
Heartbeat CPU 3 instructions: 440000000 cycles: 800860433 heartbeat IPC: 0.465892 cumulative IPC: 0.463485 (Simulation time: 4 hr 57 min 20 sec) 
Heartbeat CPU 2 instructions: 1320000000 cycles: 803249218 heartbeat IPC: 1.60414 cumulative IPC: 1.59735 (Simulation time: 4 hr 58 min 3 sec) 
Heartbeat CPU 2 instructions: 1330000001 cycles: 809482410 heartbeat IPC: 1.60431 cumulative IPC: 1.59741 (Simulation time: 4 hr 59 min 57 sec) 
Heartbeat CPU 0 instructions: 260000001 cycles: 809995298 heartbeat IPC: 0.236099 cumulative IPC: 0.221482 (Simulation time: 5 hr 0 min 7 sec) 
Heartbeat CPU 2 instructions: 1340000002 cycles: 815721842 heartbeat IPC: 1.60271 cumulative IPC: 1.59745 (Simulation time: 5 hr 1 min 47 sec) 
Heartbeat CPU 2 instructions: 1350000002 cycles: 822031417 heartbeat IPC: 1.58489 cumulative IPC: 1.59735 (Simulation time: 5 hr 3 min 43 sec) 
Heartbeat CPU 3 instructions: 450000002 cycles: 822225975 heartbeat IPC: 0.468043 cumulative IPC: 0.463608 (Simulation time: 5 hr 3 min 47 sec) 
Heartbeat CPU 1 instructions: 570000003 cycles: 825323767 heartbeat IPC: 0.31021 cumulative IPC: 0.650808 (Simulation time: 5 hr 4 min 38 sec) 
Heartbeat CPU 2 instructions: 1360000001 cycles: 828479121 heartbeat IPC: 1.55094 cumulative IPC: 1.59698 (Simulation time: 5 hr 5 min 31 sec) 
Heartbeat CPU 2 instructions: 1370000003 cycles: 834681126 heartbeat IPC: 1.61238 cumulative IPC: 1.5971 (Simulation time: 5 hr 7 min 26 sec) 
Heartbeat CPU 2 instructions: 1380000002 cycles: 840699400 heartbeat IPC: 1.66161 cumulative IPC: 1.59757 (Simulation time: 5 hr 9 min 36 sec) 
Heartbeat CPU 3 instructions: 460000001 cycles: 843021345 heartbeat IPC: 0.480876 cumulative IPC: 0.464047 (Simulation time: 5 hr 10 min 24 sec) 
Heartbeat CPU 1 instructions: 580000000 cycles: 846194536 heartbeat IPC: 0.479139 cumulative IPC: 0.646438 (Simulation time: 5 hr 11 min 34 sec) 
Heartbeat CPU 2 instructions: 1390000000 cycles: 846717335 heartbeat IPC: 1.6617 cumulative IPC: 1.59804 (Simulation time: 5 hr 11 min 46 sec) 
Heartbeat CPU 0 instructions: 270000000 cycles: 849674065 heartbeat IPC: 0.252024 cumulative IPC: 0.222954 (Simulation time: 5 hr 12 min 50 sec) 
Heartbeat CPU 2 instructions: 1400000000 cycles: 852735350 heartbeat IPC: 1.66168 cumulative IPC: 1.59851 (Simulation time: 5 hr 13 min 56 sec) 
Heartbeat CPU 2 instructions: 1410000003 cycles: 858935613 heartbeat IPC: 1.61284 cumulative IPC: 1.59861 (Simulation time: 5 hr 16 min 5 sec) 
Heartbeat CPU 1 instructions: 590000002 cycles: 862578763 heartbeat IPC: 0.610343 cumulative IPC: 0.64573 (Simulation time: 5 hr 17 min 25 sec) 
Heartbeat CPU 3 instructions: 470000000 cycles: 863964501 heartbeat IPC: 0.477483 cumulative IPC: 0.464383 (Simulation time: 5 hr 17 min 55 sec) 
Heartbeat CPU 2 instructions: 1420000000 cycles: 865028582 heartbeat IPC: 1.64124 cumulative IPC: 1.59892 (Simulation time: 5 hr 18 min 17 sec) 
Heartbeat CPU 2 instructions: 1430000000 cycles: 871066379 heartbeat IPC: 1.65623 cumulative IPC: 1.59933 (Simulation time: 5 hr 20 min 19 sec) 
Heartbeat CPU 1 instructions: 600000003 cycles: 876349680 heartbeat IPC: 0.726168 cumulative IPC: 0.647034 (Simulation time: 5 hr 22 min 11 sec) 
Heartbeat CPU 2 instructions: 1440000002 cycles: 877074328 heartbeat IPC: 1.66446 cumulative IPC: 1.59979 (Simulation time: 5 hr 22 min 27 sec) 
Heartbeat CPU 2 instructions: 1450000001 cycles: 883053673 heartbeat IPC: 1.67242 cumulative IPC: 1.6003 (Simulation time: 5 hr 24 min 37 sec) 
Heartbeat CPU 3 instructions: 480000003 cycles: 886283861 heartbeat IPC: 0.448042 cumulative IPC: 0.463959 (Simulation time: 5 hr 25 min 51 sec) 
Heartbeat CPU 1 instructions: 610000000 cycles: 888582532 heartbeat IPC: 0.817471 cumulative IPC: 0.649451 (Simulation time: 5 hr 26 min 45 sec) 
Heartbeat CPU 2 instructions: 1460000000 cycles: 889159526 heartbeat IPC: 1.63777 cumulative IPC: 1.60056 (Simulation time: 5 hr 26 min 58 sec) 
Heartbeat CPU 0 instructions: 280000001 cycles: 892725048 heartbeat IPC: 0.232283 cumulative IPC: 0.223418 (Simulation time: 5 hr 28 min 17 sec) 
Heartbeat CPU 2 instructions: 1470000001 cycles: 895209458 heartbeat IPC: 1.65291 cumulative IPC: 1.60093 (Simulation time: 5 hr 29 min 11 sec) 
Heartbeat CPU 2 instructions: 1480000000 cycles: 901231263 heartbeat IPC: 1.66063 cumulative IPC: 1.60134 (Simulation time: 5 hr 31 min 25 sec) 
Heartbeat CPU 1 instructions: 620000002 cycles: 901665269 heartbeat IPC: 0.764366 cumulative IPC: 0.651169 (Simulation time: 5 hr 31 min 34 sec) 
Heartbeat CPU 3 instructions: 490000000 cycles: 906883982 heartbeat IPC: 0.485434 cumulative IPC: 0.464462 (Simulation time: 5 hr 33 min 30 sec) 
Heartbeat CPU 2 instructions: 1490000000 cycles: 907249841 heartbeat IPC: 1.66152 cumulative IPC: 1.60175 (Simulation time: 5 hr 33 min 39 sec) 
Heartbeat CPU 2 instructions: 1500000001 cycles: 913549884 heartbeat IPC: 1.58729 cumulative IPC: 1.60165 (Simulation time: 5 hr 35 min 51 sec) 
Heartbeat CPU 1 instructions: 630000001 cycles: 914264054 heartbeat IPC: 0.793727 cumulative IPC: 0.653192 (Simulation time: 5 hr 36 min 4 sec) 
Finished CPU 0 instructions: 200000001 cycles: 891564581 cumulative IPC: 0.224325 (Simulation time: 5 hr 37 min 4 sec) 

ChampSim completed all CPUs

Total Simulation Statistics (not including warmup)

CPU 0 cumulative IPC: 0.224325 instructions: 200000001 cycles: 891564581
ITLB TOTAL     ACCESS:   37213170  HIT:   37154499  MISS:      58671  HIT %:    99.8423  MISS %:   0.157662   MPKI: 0.293355
ITLB LOAD      ACCESS:          0  HIT:          0  MISS:          0  HIT %:       -nan  MISS %:       -nan   MPKI: 0
ITLB RFO       ACCESS:          0  HIT:          0  MISS:          0  HIT %:       -nan  MISS %:       -nan   MPKI: 0
ITLB PREFETCH  ACCESS:          0  HIT:          0  MISS:          0  HIT %:       -nan  MISS %:       -nan   MPKI: 0
ITLB WRITEBACK ACCESS:          0  HIT:          0  MISS:          0  HIT %:       -nan  MISS %:       -nan   MPKI: 0
DTLB TOTAL     ACCESS:   32712350  HIT:   31894034  MISS:     818316  HIT %:    97.4984  MISS %:    2.50155   MPKI: 4.09158
DTLB LOAD      ACCESS:          0  HIT:          0  MISS:          0  HIT %:       -nan  MISS %:       -nan   MPKI: 0
DTLB RFO       ACCESS:          0  HIT:          0  MISS:          0  HIT %:       -nan  MISS %:       -nan   MPKI: 0
DTLB PREFETCH  ACCESS:          0  HIT:          0  MISS:          0  HIT %:       -nan  MISS %:       -nan   MPKI: 0
DTLB WRITEBACK ACCESS:          0  HIT:          0  MISS:          0  HIT %:       -nan  MISS %:       -nan   MPKI: 0
STLB TOTAL     ACCESS:    4260455  HIT:    3551285  MISS:     709170  HIT %:    83.3546  MISS %:    16.6454   MPKI: 3.54585
STLB LOAD      ACCESS:          0  HIT:          0  MISS:          0  HIT %:       -nan  MISS %:       -nan   MPKI: 0
STLB RFO       ACCESS:          0  HIT:          0  MISS:          0  HIT %:       -nan  MISS %:       -nan   MPKI: 0
STLB PREFETCH  ACCESS:          0  HIT:          0  MISS:          0  HIT %:       -nan  MISS %:       -nan   MPKI: 0
STLB WRITEBACK ACCESS:          0  HIT:          0  MISS:          0  HIT %:       -nan  MISS %:       -nan   MPKI: 0
L1D TOTAL     ACCESS:   37692640  HIT:   31115893  MISS:    6576747  HIT %:    82.5516  MISS %:    17.4484   MPKI: 32.8837
L1D LOAD      ACCESS:   29286569  HIT:   24462260  MISS:    4824309  HIT %:    83.5272  MISS %:    16.4728   MPKI: 24.1215
L1D RFO       ACCESS:    6676884  HIT:    6648515  MISS:      28369  HIT %:    99.5751  MISS %:   0.424884   MPKI: 0.141845
L1D PREFETCH  ACCESS:    1729187  HIT:       5118  MISS:    1724069  HIT %:   0.295977  MISS %:     99.704   MPKI: 8.62034
L1D WRITEBACK ACCESS:          0  HIT:          0  MISS:          0  HIT %:       -nan  MISS %:       -nan   MPKI: 0
L1I TOTAL     ACCESS:   42480578  HIT:   42216858  MISS:     263720  HIT %:    99.3792  MISS %:   0.620801   MPKI: 1.3186
L1I LOAD      ACCESS:   42480578  HIT:   42216858  MISS:     263720  HIT %:    99.3792  MISS %:   0.620801   MPKI: 1.3186
L1I RFO       ACCESS:          0  HIT:          0  MISS:          0  HIT %:       -nan  MISS %:       -nan   MPKI: 0
L1I PREFETCH  ACCESS:          0  HIT:          0  MISS:          0  HIT %:       -nan  MISS %:       -nan   MPKI: 0
L1I WRITEBACK ACCESS:          0  HIT:          0  MISS:          0  HIT %:       -nan  MISS %:       -nan   MPKI: 0
L2C TOTAL     ACCESS:   11859261  HIT:    2498631  MISS:    9360630  HIT %:     21.069  MISS %:     78.931   MPKI: 46.8031
L2C LOAD      ACCESS:    4862548  HIT:    1385620  MISS:    3476928  HIT %:    28.4958  MISS %:    71.5042   MPKI: 17.3846
L2C RFO       ACCESS:      28178  HIT:      10890  MISS:      17288  HIT %:    38.6472  MISS %:    61.3528   MPKI: 0.08644
L2C PREFETCH  ACCESS:    6148481  HIT:     566405  MISS:    5582076  HIT %:    9.21211  MISS %:    90.7879   MPKI: 27.9104
L2C WRITEBACK ACCESS:      67219  HIT:      55959  MISS:      11260  HIT %:    83.2488  MISS %:    16.7512   MPKI: 0.0563
PSCL5 TOTAL     ACCESS:     709170  HIT:     709170  MISS:          0  HIT %:        100  MISS %:          0   MPKI: 0
PSCL5 LOAD      ACCESS:          0  HIT:          0  MISS:          0  HIT %:       -nan  MISS %:       -nan   MPKI: 0
PSCL5 RFO       ACCESS:          0  HIT:          0  MISS:          0  HIT %:       -nan  MISS %:       -nan   MPKI: 0
PSCL5 PREFETCH  ACCESS:          0  HIT:          0  MISS:          0  HIT %:       -nan  MISS %:       -nan   MPKI: 0
PSCL5 WRITEBACK ACCESS:          0  HIT:          0  MISS:          0  HIT %:       -nan  MISS %:       -nan   MPKI: 0
PSCL4 TOTAL     ACCESS:     709170  HIT:     709170  MISS:          0  HIT %:        100  MISS %:          0   MPKI: 0
PSCL4 LOAD      ACCESS:          0  HIT:          0  MISS:          0  HIT %:       -nan  MISS %:       -nan   MPKI: 0
PSCL4 RFO       ACCESS:          0  HIT:          0  MISS:          0  HIT %:       -nan  MISS %:       -nan   MPKI: 0
PSCL4 PREFETCH  ACCESS:          0  HIT:          0  MISS:          0  HIT %:       -nan  MISS %:       -nan   MPKI: 0
PSCL4 WRITEBACK ACCESS:          0  HIT:          0  MISS:          0  HIT %:       -nan  MISS %:       -nan   MPKI: 0
PSCL3 TOTAL     ACCESS:     709170  HIT:     709170  MISS:          0  HIT %:        100  MISS %:          0   MPKI: 0
PSCL3 LOAD      ACCESS:          0  HIT:          0  MISS:          0  HIT %:       -nan  MISS %:       -nan   MPKI: 0
PSCL3 RFO       ACCESS:          0  HIT:          0  MISS:          0  HIT %:       -nan  MISS %:       -nan   MPKI: 0
PSCL3 PREFETCH  ACCESS:          0  HIT:          0  MISS:          0  HIT %:       -nan  MISS %:       -nan   MPKI: 0
PSCL3 WRITEBACK ACCESS:          0  HIT:          0  MISS:          0  HIT %:       -nan  MISS %:       -nan   MPKI: 0
PSCL2 TOTAL     ACCESS:     709170  HIT:     665505  MISS:      43665  HIT %:    93.8428  MISS %:     6.1572   MPKI: 0.218325
PSCL2 LOAD      ACCESS:          0  HIT:          0  MISS:          0  HIT %:       -nan  MISS %:       -nan   MPKI: 0
PSCL2 RFO       ACCESS:          0  HIT:          0  MISS:          0  HIT %:       -nan  MISS %:       -nan   MPKI: 0
PSCL2 PREFETCH  ACCESS:          0  HIT:          0  MISS:          0  HIT %:       -nan  MISS %:       -nan   MPKI: 0
PSCL2 WRITEBACK ACCESS:          0  HIT:          0  MISS:          0  HIT %:       -nan  MISS %:       -nan   MPKI: 0
=== CPU 0 L1D Prefetcher Statistics ===
[MLOP] History of tracked zone:
IIIIIIIIIIIIIIIIIIIIIIIIIIIIIIIIIIIIIIIIIIIIIIIIIIIIIIIIIIIIIIII
IA1II2I2IIIIIIIIIIIIIIIIIIIIIIIIIIIIIIIIIIIIIIIIIIIIIIIIIIIIIIII
AA1I2222IIIIIIIIIIIIIIIIIIIIIIIIIIIIIIIIIIIIIIIIIIIIIIIIIIIIIIII
IAII22I2IIIIIIIIIIIIIIIIIIIIIIIIIIIIIIIIIIIIIIIIIIIIIIIIIIIIIIII
AAI22222IIIIIIIIIIIIIIIIIIIIIIIIIIIIIIIIIIIIIIIIIIIIIIIIIIIIIIII
IAII2II2IIIIIIIIIIIIIIIIIIIIIIIIIIIIIIIIIIIIIIIIIIIIIIIIIIIIIIII
AAI22I22IIIIIIIIIIIIIIIIIIIIIIIIIIIIIIIIIIIIIIIIIIIIIIIIIIIIIIII
IAII2II2IIIIIIIIIIIIIIIIIIIIIIIIIIIIIIIIIIIIIIIIIIIIIIIIIIIIIIII
AAI22I22IIIIIIIIIIIIIIIIIIIIIIIIIIIIIIIIIIIIIIIIIIIIIIIIIIIIIIII
IAII22IIIII2IIIIIIIIIIIIIIIIIIIIIIIIIIIIIIIIIIIIIIIIIIIIIIIIIIII
AAI222IIII22IIIIIIIIIIIIIIIIIIIIIIIIIIIIIIIIIIIIIIIIIIIIIIIIIIII
IIIIIIIIIIIIIA1IIIIIIIIIIIIIIIIIIIIIIIIIIIIIIIIIIIIIIIIIIIIIIIII
IIIIIIIIIIA1IIIIIIIIIIIIIIIIIIIIIIIIIIIIIIIIIIIIIIIIIIIIIIIIIIII
IIIIIIIIIIAA1IIIIIIIIIIIIIIIIIIIIIIIIIIIIIIIIIIIIIIIIIIIIIIIIIII
IIIIIIIIIIAAA1IIIIIIIIIIIIIIIIIIIIIIIIIIIIIIIIIIIIIIIIIIIIIIIIII
IAII2II2IIIIIIIIIIIIIIIIIIIIIIIIIIIIIIIIIIIIIIIIIIIIIIIIIIIIIIII
AAI22I22IIIIIIIIIIIIIIIIIIIIIIIIIIIIIIIIIIIIIIIIIIIIIIIIIIIIIIII
IAII2I2IIIIIIIIIIIIIIIIIIIIIIIIIIIIIIIIIIIIIIIIIIIIIIIIIIIIIIIII
AAI2222IIIIIIIIIIIIIIIIIIIIIIIIIIIIIIIIIIIIIIIIIIIIIIIIIIIIIIIII
IA1IIIIIIIIIIIIIIIIIIIIIIIIIIIIIIIIIIIIIIIIIIIIIIIIIIIIIIIIIIIII
AA1IIIIIIIIIIIIIIIIIIIIIIIIIIIIIIIIIIIIIIIIIIIIIIIIIIIIIIIIIIIII
IA1II1122I2IIIIIIIIIIIIIIIIIIIIIIIIIIIIIIIIIIIIIIIIIIIIIIIIIIIII
AA1I1112222IIIIIIIIIIIIIIIIIIIIIIIIIIIIIIIIIIIIIIIIIIIIIIIIIIIII
IIIIIIIIIIIIIA2IIIIIIIIIIIIIIIIIIIIIIIIIIIIIIIIIIIIIIIIIIIIIIIII
IIIIIIIIIIA1IIIIIIIIIIIIIIIIIIIIIIIIIIIIIIIIIIIIIIIIIIIIIIIIIIII
IIIIIIIIIIAA1IIIIIIIIIIIIIIIIIIIIIIIIIIIIIIIIIIIIIIIIIIIIIIIIIII
IIIIIIIIIIAAA1IIIIIIIIIIIIIIIIIIIIIIIIIIIIIIIIIIIIIIIIIIIIIIIIII
IAII2I2IIIIIIIIIIIIIIIIIIIIIIIIIIIIIIIIIIIIIIIIIIIIIIIIIIIIIIIII
AAI2222IIIIIIIIIIIIIIIIIIIIIIIIIIIIIIIIIIIIIIIIIIIIIIIIIIIIIIIII
IAIII1I222IIIIIIIIIIIIIIIIIIIIIIIIIIIIIIIIIIIIIIIIIIIIIIIIIIIIII
AAII112222IIIIIIIIIIIIIIIIIIIIIIIIIIIIIIIIIIIIIIIIIIIIIIIIIIIIII
IAIII2I2IIIIIIIIIIIIIIIIIIIIIIIIIIIIIIIIIIIIIIIIIIIIIIIIIIIIIIII
AAII2222IIIIIIIIIIIIIIIIIIIIIIIIIIIIIIIIIIIIIIIIIIIIIIIIIIIIIIII
IIIIIIIIIIIIIA2IIIIIIIIIIIIIIIIIIIIIIIIIIIIIIIIIIIIIIIIIIIIIIIII
IIIIIIIIIIA2IIIIIIIIIIIIIIIIIIIIIIIIIIIIIIIIIIIIIIIIIIIIIIIIIIII
IIIIIIIIIIAA2IIIIIIIIIIIIIIIIIIIIIIIIIIIIIIIIIIIIIIIIIIIIIIIIIII
IIIIIIIIIIAAA2IIIIIIIIIIIIIIIIIIIIIIIIIIIIIIIIIIIIIIIIIIIIIIIIII
IAII22IIIIIIIIIIIIIIIIIIIIIIIIIIIIIIIIIIIIIIIIIIIIIIIIIIIIIIIIII
AAI222IIIIIIIIIIIIIIIIIIIIIIIIIIIIIIIIIIIIIIIIIIIIIIIIIIIIIIIIII
IAIII2IIIIIIIIIIIIIIIIIIIIIIIIIIIIIIIIIIIIIIIIIIIIIIIIIIIIIIIIII
AAII22IIIIIIIIIIIIIIIIIIIIIIIIIIIIIIIIIIIIIIIIIIIIIIIIIIIIIIIIII
IAII2II2IIIIIIIIIIIIIIIIIIIIIIIIIIIIIIIIIIIIIIIIIIIIIIIIIIIIIIII
AAI22I22IIIIIIIIIIIIIIIIIIIIIIIIIIIIIIIIIIIIIIIIIIIIIIIIIIIIIIII
IAII2I2IIIIIIIIIIIIIIIIIIIIIIIIIIIIIIIIIIIIIIIIIIIIIIIIIIIIIIIII
AAI2222IIIIIIIIIIIIIIIIIIIIIIIIIIIIIIIIIIIIIIIIIIIIIIIIIIIIIIIII
IIIIIIIIIIIIIA2IIIIIIIIIIIIIIIIIIIIIIIIIIIIIIIIIIIIIIIIIIIIIIIII
IIIIIIIIIIA2IIIIIIIIIIIIIIIIIIIIIIIIIIIIIIIIIIIIIIIIIIIIIIIIIIII
IIIIIIIIIIAA2IIIIIIIIIIIIIIIIIIIIIIIIIIIIIIIIIIIIIIIIIIIIIIIIIII
IIIIIIIIIIAAA2IIIIIIIIIIIIIIIIIIIIIIIIIIIIIIIIIIIIIIIIIIIIIIIIII
IAII2II22IIIIIIIIIIIIIIIIIIIIIIIIIIIIIIIIIIIIIIIIIIIIIIIIIIIIIII
AAI22I222IIIIIIIIIIIIIIIIIIIIIIIIIIIIIIIIIIIIIIIIIIIIIIIIIIIIIII
IIIIIIIIIIIIIA2IIIIIIIIIIIIIIIIIIIIIIIIIIIIIIIIIIIIIIIIIIIIIIIII
IIIIIIIIIIA2IIIIIIIIIIIIIIIIIIIIIIIIIIIIIIIIIIIIIIIIIIIIIIIIIIII
IIIIIIIIIIAA2IIIIIIIIIIIIIIIIIIIIIIIIIIIIIIIIIIIIIIIIIIIIIIIIIII
IIIIIIIIIIAAA2IIIIIIIIIIIIIIIIIIIIIIIIIIIIIIIIIIIIIIIIIIIIIIIIII
IAII2III2IIIIIIIIIIIIIIIIIIIIIIIIIIIIIIIIIIIIIIIIIIIIIIIIIIIIIII
AAI22II22IIIIIIIIIIIIIIIIIIIIIIIIIIIIIIIIIIIIIIIIIIIIIIIIIIIIIII
IA1I2III2IIIIIIIIIIIIIIIIIIIIIIIIIIIIIIIIIIIIIIIIIIIIIIIIIIIIIII
AA122II22IIIIIIIIIIIIIIIIIIIIIIIIIIIIIIIIIIIIIIIIIIIIIIIIIIIIIII
IA1II2II2IIIIIIIIIIIIIIIIIIIIIIIIIIIIIIIIIIIIIIIIIIIIIIIIIIIIIII
AA1I22I22IIIIIIIIIIIIIIIIIIIIIIIIIIIIIIIIIIIIIIIIIIIIIIIIIIIIIII
IIIIIIIIIIIIIA2IIIIIIIIIIIIIIIIIIIIIIIIIIIIIIIIIIIIIIIIIIIIIIIII
IIIIIIIIIIA2IIIIIIIIIIIIIIIIIIIIIIIIIIIIIIIIIIIIIIIIIIIIIIIIIIII
IIIIIIIIIIAA2IIIIIIIIIIIIIIIIIIIIIIIIIIIIIIIIIIIIIIIIIIIIIIIIIII
IIIIIIIIIIAAA2IIIIIIIIIIIIIIIIIIIIIIIIIIIIIIIIIIIIIIIIIIIIIIIIII
IAIIIIIII1I2II2IIIIIIIIIIIIIIIIIIIIIIIIIIIIIIIIIIIIIIIIIIIIIIIII
AAIIIIII1122I22IIIIIIIIIIIIIIIIIIIIIIIIIIIIIIIIIIIIIIIIIIIIIIIII
IIIIIIIIIIIIIA2IIIIIIIIIIIIIIIIIIIIIIIIIIIIIIIIIIIIIIIIIIIIIIIII
IIIIIIIIIIA2IIIIIIIIIIIIIIIIIIIIIIIIIIIIIIIIIIIIIIIIIIIIIIIIIIII
IIIIIIIIIIAA2IIIIIIIIIIIIIIIIIIIIIIIIIIIIIIIIIIIIIIIIIIIIIIIIIII
IIIIIIIIIIAAA2IIIIIIIIIIIIIIIIIIIIIIIIIIIIIIIIIIIIIIIIIIIIIIIIII
IA12IIII2IIIII2IIIIIIIIIIIIIIIIIIIIIIIIIIIIIIIIIIIIIIIIIIIIIIIII
AA12III22IIII22IIIIIIIIIIIIIIIIIIIIIIIIIIIIIIIIIIIIIIIIIIIIIIIII
IAIIIIIII2I2II2IIIIIIIIIIIIIIIIIIIIIIIIIIIIIIIIIIIIIIIIIIIIIIIII
AAIIIIII2222I22IIIIIIIIIIIIIIIIIIIIIIIIIIIIIIIIIIIIIIIIIIIIIIIII
IA12III22IIIIIIIIIIIIIIIIIIIIIIIIIIIIIIIIIIIIIIIIIIIIIIIIIIIIIII
AA12II222IIIIIIIIIIIIIIIIIIIIIIIIIIIIIIIIIIIIIIIIIIIIIIIIIIIIIII
IA1IIII22I1IIII2IIIIIIIIIIIIIIIIIIIIIIIIIIIIIIIIIIIIIIIIIIIIIIII
AA1III22211III22IIIIIIIIIIIIIIIIIIIIIIIIIIIIIIIIIIIIIIIIIIIIIIII
IAIIIIIII2I2II2IIIIIIIIIIIIIIIIIIIIIIIIIIIIIIIIIIIIIIIIIIIIIIIII
AAIIIIII2222I22IIIIIIIIIIIIIIIIIIIIIIIIIIIIIIIIIIIIIIIIIIIIIIIII
IAI2IIII22IIIIIIIIIIIIIIIIIIIIIIIIIIIIIIIIIIIIIIIIIIIIIIIIIIIIII
AA22III222IIIIIIIIIIIIIIIIIIIIIIIIIIIIIIIIIIIIIIIIIIIIIIIIIIIIII
IA1II2I22IIIIIIIIIIIIIIIIIIIIIIIIIIIIIIIIIIIIIIIIIIIIIIIIIIIIIII
AA1I22222IIIIIIIIIIIIIIIIIIIIIIIIIIIIIIIIIIIIIIIIIIIIIIIIIIIIIII
IAII2III2IIIIIIIIIIIIIIIIIIIIIIIIIIIIIIIIIIIIIIIIIIIIIIIIIIIIIII
AAI22II22IIIIIIIIIIIIIIIIIIIIIIIIIIIIIIIIIIIIIIIIIIIIIIIIIIIIIII
IA1IIII22IIIIIIIIIIIIIIIIIIIIIIIIIIIIIIIIIIIIIIIIIIIIIIIIIIIIIII
AA1III222IIIIIIIIIIIIIIIIIIIIIIIIIIIIIIIIIIIIIIIIIIIIIIIIIIIIIII
IIIIIIIIIIIIIA2IIIIIIIIIIIIIIIIIIIIIIIIIIIIIIIIIIIIIIIIIIIIIIIII
IIIIIIIIIIA2IIIIIIIIIIIIIIIIIIIIIIIIIIIIIIIIIIIIIIIIIIIIIIIIIIII
IIIIIIIIIIAA2IIIIIIIIIIIIIIIIIIIIIIIIIIIIIIIIIIIIIIIIIIIIIIIIIII
IIIIIIIIIIAAA2IIIIIIIIIIIIIIIIIIIIIIIIIIIIIIIIIIIIIIIIIIIIIIIIII
IIIIIIIIIIIIIA2IIIIIIIIIIIIIIIIIIIIIIIIIIIIIIIIIIIIIIIIIIIIIIIII
IIIIIIIIIIA2IIIIIIIIIIIIIIIIIIIIIIIIIIIIIIIIIIIIIIIIIIIIIIIIIIII
IIIIIIIIIIAA2IIIIIIIIIIIIIIIIIIIIIIIIIIIIIIIIIIIIIIIIIIIIIIIIIII
IIIIIIIIIIAAA2IIIIIIIIIIIIIIIIIIIIIIIIIIIIIIIIIIIIIIIIIIIIIIIIII
IA1I2II22IIIIIIIIIIIIIIIIIIIIIIIIIIIIIIIIIIIIIIIIIIIIIIIIIIIIIII
AA122I222IIIIIIIIIIIIIIIIIIIIIIIIIIIIIIIIIIIIIIIIIIIIIIIIIIIIIII
IIIIIIIIIIIIIA2IIIIIIIIIIIIIIIIIIIIIIIIIIIIIIIIIIIIIIIIIIIIIIIII
IIIIIIIIIIA2IIIIIIIIIIIIIIIIIIIIIIIIIIIIIIIIIIIIIIIIIIIIIIIIIIII
IIIIIIIIIIAA2IIIIIIIIIIIIIIIIIIIIIIIIIIIIIIIIIIIIIIIIIIIIIIIIIII
IIIIIIIIIIAAA2IIIIIIIIIIIIIIIIIIIIIIIIIIIIIIIIIIIIIIIIIIIIIIIIII
IAIIIIIII2I2II2IIIIIIIIIIIIIIIIIIIIIIIIIIIIIIIIIIIIIIIIIIIIIIIII
AAIIIIII2222I22IIIIIIIIIIIIIIIIIIIIIIIIIIIIIIIIIIIIIIIIIIIIIIIII
IIIIIIIIIIIIIA1IIIIIIIIIIIIIIIIIIIIIIIIIIIIIIIIIIIIIIIIIIIIIIIII
IIIIIIIIIIA2IIIIIIIIIIIIIIIIIIIIIIIIIIIIIIIIIIIIIIIIIIIIIIIIIIII
IIIIIIIIIIAA2IIIIIIIIIIIIIIIIIIIIIIIIIIIIIIIIIIIIIIIIIIIIIIIIIII
IIIIIIIIIIAAA2IIIIIIIIIIIIIIIIIIIIIIIIIIIIIIIIIIIIIIIIIIIIIIIIII
IAII2IIII2IIIIIIIIIIIIIIIIIIIIIIIIIIIIIIIIIIIIIIIIIIIIIIIIIIIIII
AAI22III22IIIIIIIIIIIIIIIIIIIIIIIIIIIIIIIIIIIIIIIIIIIIIIIIIIIIII
IA1II2II2IIIIIIIIIIIIIIIIIIIIIIIIIIIIIIIIIIIIIIIIIIIIIIIIIIIIIII
AA1I22I22IIIIIIIIIIIIIIIIIIIIIIIIIIIIIIIIIIIIIIIIIIIIIIIIIIIIIII
IIIIIIIIIIA2IIIIIIIIIIIIIIIIIIIIIIIIIIIIIIIIIIIIIIIIIIIIIIIIIIII
IIIIIIIIIIAA2IIIIIIIIIIIIIIIIIIIIIIIIIIIIIIIIIIIIIIIIIIIIIIIIIII
IIIIIIIIIIAAA2IIIIIIIIIIIIIIIIIIIIIIIIIIIIIIIIIIIIIIIIIIIIIIIIII
IIIIIIIIIIIIIA2IIIIIIIIIIIIIIIIIIIIIIIIIIIIIIIIIIIIIIIIIIIIIIIII
IIIIIIIIIIA2IIIIIIIIIIIIIIIIIIIIIIIIIIIIIIIIIIIIIIIIIIIIIIIIIIII
IIIIIIIIIIAA2IIIIIIIIIIIIIIIIIIIIIIIIIIIIIIIIIIIIIIIIIIIIIIIIIII
IIIIIIIIIIAAA2IIIIIIIIIIIIIIIIIIIIIIIIIIIIIIIIIIIIIIIIIIIIIIIIII
IA1I22I2IIIIIIIIIIIIIIIIIIIIIIIIIIIIIIIIIIIIIIIIIIIIIIIIIIIIIIII
AA122222IIIIIIIIIIIIIIIIIIIIIIIIIIIIIIIIIIIIIIIIIIIIIIIIIIIIIIII
IAII2III22IIIIIIIIIIIIIIIIIIIIIIIIIIIIIIIIIIIIIIIIIIIIIIIIIIIIII
AAI22II222IIIIIIIIIIIIIIIIIIIIIIIIIIIIIIIIIIIIIIIIIIIIIIIIIIIIII
IA1IIIII2I2III2IIIIIIIIIIIIIIIIIIIIIIIIIIIIIIIIIIIIIIIIIIIIIIIII
AA1IIII2222II22IIIIIIIIIIIIIIIIIIIIIIIIIIIIIIIIIIIIIIIIIIIIIIIII
IA1IIII22I2III22IIIIIIIIIIIIIIIIIIIIIIIIIIIIIIIIIIIIIIIIIIIIIIII
AA1III22222II222IIIIIIIIIIIIIIIIIIIIIIIIIIIIIIIIIIIIIIIIIIIIIIII
IA1IIII2II2IIIIIIIIIIIIIIIIIIIIIIIIIIIIIIIIIIIIIIIIIIIIIIIIIIIII
AA1III22I22IIIIIIIIIIIIIIIIIIIIIIIIIIIIIIIIIIIIIIIIIIIIIIIIIIIII
IAIIIIIII2I2II2IIIIIIIIIIIIIIIIIIIIIIIIIIIIIIIIIIIIIIIIIIIIIIIII
AAIIIIII2222I22IIIIIIIIIIIIIIIIIIIIIIIIIIIIIIIIIIIIIIIIIIIIIIIII
IA12III22IIIIIIIIIIIIIIIIIIIIIIIIIIIIIIIIIIIIIIIIIIIIIIIIIIIIIII
AA12II222IIIIIIIIIIIIIIIIIIIIIIIIIIIIIIIIIIIIIIIIIIIIIIIIIIIIIII
IIIIIIIIIIIIIA1IIIIIIIIIIIIIIIIIIIIIIIIIIIIIIIIIIIIIIIIIIIIIIIII
IIIIIIIIIIA2IIIIIIIIIIIIIIIIIIIIIIIIIIIIIIIIIIIIIIIIIIIIIIIIIIII
IIIIIIIIIIAA2IIIIIIIIIIIIIIIIIIIIIIIIIIIIIIIIIIIIIIIIIIIIIIIIIII
IIIIIIIIIIAAA2IIIIIIIIIIIIIIIIIIIIIIIIIIIIIIIIIIIIIIIIIIIIIIIIII
IAIIIIIII2IIII2IIIIIIIIIIIIIIIIIIIIIIIIIIIIIIIIIIIIIIIIIIIIIIIII
AAIIIIII22III22IIIIIIIIIIIIIIIIIIIIIIIIIIIIIIIIIIIIIIIIIIIIIIIII
IA1I2III2IIIIIIIIIIIIIIIIIIIIIIIIIIIIIIIIIIIIIIIIIIIIIIIIIIIIIII
AA122II22IIIIIIIIIIIIIIIIIIIIIIIIIIIIIIIIIIIIIIIIIIIIIIIIIIIIIII
[MLOP] Prefetch Degree Mean: 1.9725
[MLOP] Prefetch Degree SD: 1.1217
[MLOP] Max Score Left Mean (%): 12.126
[MLOP] Max Score Left SD (%): 5.72149
[MLOP] Max Score Right Mean (%): 40.2441
[MLOP] Max Score Right SD (%): 6.60619
LLC TOTAL     ACCESS:    9390968  HIT:     306997  MISS:    9083971  HIT %:    3.26907  MISS %:    96.7309   MPKI: 45.4199
LLC LOAD      ACCESS:    3245276  HIT:     124689  MISS:    3120587  HIT %:    3.84217  MISS %:    96.1578   MPKI: 15.6029
LLC RFO       ACCESS:      17172  HIT:       2220  MISS:      14952  HIT %:     12.928  MISS %:     87.072   MPKI: 0.07476
LLC PREFETCH  ACCESS:    5813844  HIT:     105395  MISS:    5708449  HIT %:    1.81283  MISS %:    98.1872   MPKI: 28.5422
LLC WRITEBACK ACCESS:      41598  HIT:      37633  MISS:       3965  HIT %:    90.4683  MISS %:    9.53171   MPKI: 0.019825

RAW hits: 2522595
Loads Generated: 62447343
Loads sent to L1D: 59924748
Stores Generated: 6827670
Stores sent to L1D: 6827670

CPU 1 cumulative IPC: 0.653939 instructions: 583029293 cycles: 891564581
ITLB TOTAL     ACCESS:   98527544  HIT:   98527515  MISS:         29  HIT %:        100  MISS %: 2.94334e-05   MPKI: 4.97402e-05
ITLB LOAD      ACCESS:          0  HIT:          0  MISS:          0  HIT %:       -nan  MISS %:       -nan   MPKI: 0
ITLB RFO       ACCESS:          0  HIT:          0  MISS:          0  HIT %:       -nan  MISS %:       -nan   MPKI: 0
ITLB PREFETCH  ACCESS:          0  HIT:          0  MISS:          0  HIT %:       -nan  MISS %:       -nan   MPKI: 0
ITLB WRITEBACK ACCESS:          0  HIT:          0  MISS:          0  HIT %:       -nan  MISS %:       -nan   MPKI: 0
DTLB TOTAL     ACCESS:  226844454  HIT:  220936824  MISS:    5907630  HIT %:    97.3957  MISS %:    2.60426   MPKI: 10.1326
DTLB LOAD      ACCESS:          0  HIT:          0  MISS:          0  HIT %:       -nan  MISS %:       -nan   MPKI: 0
DTLB RFO       ACCESS:          0  HIT:          0  MISS:          0  HIT %:       -nan  MISS %:       -nan   MPKI: 0
DTLB PREFETCH  ACCESS:          0  HIT:          0  MISS:          0  HIT %:       -nan  MISS %:       -nan   MPKI: 0
DTLB WRITEBACK ACCESS:          0  HIT:          0  MISS:          0  HIT %:       -nan  MISS %:       -nan   MPKI: 0
STLB TOTAL     ACCESS:   15311467  HIT:   14807646  MISS:     503821  HIT %:    96.7095  MISS %:    3.29048   MPKI: 0.864144
STLB LOAD      ACCESS:          0  HIT:          0  MISS:          0  HIT %:       -nan  MISS %:       -nan   MPKI: 0
STLB RFO       ACCESS:          0  HIT:          0  MISS:          0  HIT %:       -nan  MISS %:       -nan   MPKI: 0
STLB PREFETCH  ACCESS:          0  HIT:          0  MISS:          0  HIT %:       -nan  MISS %:       -nan   MPKI: 0
STLB WRITEBACK ACCESS:          0  HIT:          0  MISS:          0  HIT %:       -nan  MISS %:       -nan   MPKI: 0
L1D TOTAL     ACCESS:  286802787  HIT:  266695288  MISS:   20107499  HIT %:    92.9891  MISS %:    7.01091   MPKI: 34.488
L1D LOAD      ACCESS:  247738236  HIT:  238341421  MISS:    9396815  HIT %:     96.207  MISS %:    3.79304   MPKI: 16.1172
L1D RFO       ACCESS:   28529123  HIT:   28353846  MISS:     175277  HIT %:    99.3856  MISS %:   0.614379   MPKI: 0.300632
L1D PREFETCH  ACCESS:   10535428  HIT:         21  MISS:   10535407  HIT %: 0.000199327  MISS %:    99.9998   MPKI: 18.0701
L1D WRITEBACK ACCESS:          0  HIT:          0  MISS:          0  HIT %:       -nan  MISS %:       -nan   MPKI: 0
L1I TOTAL     ACCESS:  121898981  HIT:  121898291  MISS:        690  HIT %:    99.9994  MISS %: 0.000566042   MPKI: 0.00118347
L1I LOAD      ACCESS:  121898981  HIT:  121898291  MISS:        690  HIT %:    99.9994  MISS %: 0.000566042   MPKI: 0.00118347
L1I RFO       ACCESS:          0  HIT:          0  MISS:          0  HIT %:       -nan  MISS %:       -nan   MPKI: 0
L1I PREFETCH  ACCESS:          0  HIT:          0  MISS:          0  HIT %:       -nan  MISS %:       -nan   MPKI: 0
L1I WRITEBACK ACCESS:          0  HIT:          0  MISS:          0  HIT %:       -nan  MISS %:       -nan   MPKI: 0
L2C TOTAL     ACCESS:   34728658  HIT:   15486820  MISS:   19241838  HIT %:    44.5938  MISS %:    55.4062   MPKI: 33.0032
L2C LOAD      ACCESS:    9329816  HIT:    5967357  MISS:    3362459  HIT %:    63.9601  MISS %:    36.0399   MPKI: 5.76722
L2C RFO       ACCESS:     175277  HIT:      47261  MISS:     128016  HIT %:    26.9636  MISS %:    73.0364   MPKI: 0.21957
L2C PREFETCH  ACCESS:   21715296  HIT:    6331548  MISS:   15383748  HIT %:    29.1571  MISS %:    70.8429   MPKI: 26.3859
L2C WRITEBACK ACCESS:    2850789  HIT:    2764823  MISS:      85966  HIT %:    96.9845  MISS %:    3.01552   MPKI: 0.147447
PSCL5 TOTAL     ACCESS:     503821  HIT:     503821  MISS:          0  HIT %:        100  MISS %:          0   MPKI: 0
PSCL5 LOAD      ACCESS:          0  HIT:          0  MISS:          0  HIT %:       -nan  MISS %:       -nan   MPKI: 0
PSCL5 RFO       ACCESS:          0  HIT:          0  MISS:          0  HIT %:       -nan  MISS %:       -nan   MPKI: 0
PSCL5 PREFETCH  ACCESS:          0  HIT:          0  MISS:          0  HIT %:       -nan  MISS %:       -nan   MPKI: 0
PSCL5 WRITEBACK ACCESS:          0  HIT:          0  MISS:          0  HIT %:       -nan  MISS %:       -nan   MPKI: 0
PSCL4 TOTAL     ACCESS:     503821  HIT:     503821  MISS:          0  HIT %:        100  MISS %:          0   MPKI: 0
PSCL4 LOAD      ACCESS:          0  HIT:          0  MISS:          0  HIT %:       -nan  MISS %:       -nan   MPKI: 0
PSCL4 RFO       ACCESS:          0  HIT:          0  MISS:          0  HIT %:       -nan  MISS %:       -nan   MPKI: 0
PSCL4 PREFETCH  ACCESS:          0  HIT:          0  MISS:          0  HIT %:       -nan  MISS %:       -nan   MPKI: 0
PSCL4 WRITEBACK ACCESS:          0  HIT:          0  MISS:          0  HIT %:       -nan  MISS %:       -nan   MPKI: 0
PSCL3 TOTAL     ACCESS:     503821  HIT:     503821  MISS:          0  HIT %:        100  MISS %:          0   MPKI: 0
PSCL3 LOAD      ACCESS:          0  HIT:          0  MISS:          0  HIT %:       -nan  MISS %:       -nan   MPKI: 0
PSCL3 RFO       ACCESS:          0  HIT:          0  MISS:          0  HIT %:       -nan  MISS %:       -nan   MPKI: 0
PSCL3 PREFETCH  ACCESS:          0  HIT:          0  MISS:          0  HIT %:       -nan  MISS %:       -nan   MPKI: 0
PSCL3 WRITEBACK ACCESS:          0  HIT:          0  MISS:          0  HIT %:       -nan  MISS %:       -nan   MPKI: 0
PSCL2 TOTAL     ACCESS:     503821  HIT:     349931  MISS:     153890  HIT %:    69.4554  MISS %:    30.5446   MPKI: 0.263949
PSCL2 LOAD      ACCESS:          0  HIT:          0  MISS:          0  HIT %:       -nan  MISS %:       -nan   MPKI: 0
PSCL2 RFO       ACCESS:          0  HIT:          0  MISS:          0  HIT %:       -nan  MISS %:       -nan   MPKI: 0
PSCL2 PREFETCH  ACCESS:          0  HIT:          0  MISS:          0  HIT %:       -nan  MISS %:       -nan   MPKI: 0
PSCL2 WRITEBACK ACCESS:          0  HIT:          0  MISS:          0  HIT %:       -nan  MISS %:       -nan   MPKI: 0
=== CPU 1 L1D Prefetcher Statistics ===
[MLOP] History of tracked zone:
IIIIIIIIIIIIIIIIIIIIIIIIIIIIIIIIIIIIIIIIIIIIIIIIIIIIIIIIIIIIIIII
A111IIIIIIIIIIIIIIIIIIIIIIIIIIIIIIIIIIIIIIIIIIIIIIIIIIIIIIIIIIII
AA111IIIIIIIIIIIIIIIIIIIIIIIIIIIIIIIIIIIIIIIIIIIIIIIIIIIIIIIIIII
AAA111IIIIIIIIIIIIIIIIIIIIIIIIIIIIIIIIIIIIIIIIIIIIIIIIIIIIIIIIII
AAAA111IIIIIIIIIIIIIIIIIIIIIIIIIIIIIIIIIIIIIIIIIIIIIIIIIIIIIIIII
AAAAA111IIIIIIIIIIIIIIIIIIIIIIIIIIIIIIIIIIIIIIIIIIIIIIIIIIIIIIII
AAAAAA111IIIIIIIIIIIIIIIIIIIIIIIIIIIIIIIIIIIIIIIIIIIIIIIIIIIIIII
AAAAAAA111IIIIIIIIIIIIIIIIIIIIIIIIIIIIIIIIIIIIIIIIIIIIIIIIIIIIII
AAAAAAAA111IIIIIIIIIIIIIIIIIIIIIIIIIIIIIIIIIIIIIIIIIIIIIIIIIIIII
AAAAAAAAA111IIIIIIIIIIIIIIIIIIIIIIIIIIIIIIIIIIIIIIIIIIIIIIIIIIII
AAAAAAAAAA111IIIIIIIIIIIIIIIIIIIIIIIIIIIIIIIIIIIIIIIIIIIIIIIIIII
AAAAAAAAAAA111IIIIIIIIIIIIIIIIIIIIIIIIIIIIIIIIIIIIIIIIIIIIIIIIII
AAAAAAAAAAAA111IIIIIIIIIIIIIIIIIIIIIIIIIIIIIIIIIIIIIIIIIIIIIIIII
AAAAAAAAAAAAA111IIIIIIIIIIIIIIIIIIIIIIIIIIIIIIIIIIIIIIIIIIIIIIII
AAAAAAAAAAAAAA111IIIIIIIIIIIIIIIIIIIIIIIIIIIIIIIIIIIIIIIIIIIIIII
AAAAAAAAAAAAAAA111IIIIIIIIIIIIIIIIIIIIIIIIIIIIIIIIIIIIIIIIIIIIII
AAAAAAAAAAAAAAAA111IIIIIIIIIIIIIIIIIIIIIIIIIIIIIIIIIIIIIIIIIIIII
AAAAAAAAAAAAAAAAA111IIIIIIIIIIIIIIIIIIIIIIIIIIIIIIIIIIIIIIIIIIII
AAAAAAAAAAAAAAAAAA111IIIIIIIIIIIIIIIIIIIIIIIIIIIIIIIIIIIIIIIIIII
AAAAAAAAAAAAAAAAAAA111IIIIIIIIIIIIIIIIIIIIIIIIIIIIIIIIIIIIIIIIII
AAAAAAAAAAAAAAAAAAAA111IIIIIIIIIIIIIIIIIIIIIIIIIIIIIIIIIIIIIIIII
AAAAAAAAAAAAAAAAAAAA111A111IIIIIIIIIIIIIIIIIIIIIIIIIIIIIIIIIIIII
AAAAAAAAAAAAAAAAAAAA11AA111IIIIIIIIIIIIIIIIIIIIIIIIIIIIIIIIIIIII
AAAAAAAAAAAAAAAAAAAA11AAA111IIIIIIIIIIIIIIIIIIIIIIIIIIIIIIIIIIII
AAAAAAAAAAAAAAAAAAAA11AAAA111IIIIIIIIIIIIIIIIIIIIIIIIIIIIIIIIIII
AAAAAAAAAAAAAAAAAAAA11AAAAA111IIIIIIIIIIIIIIIIIIIIIIIIIIIIIIIIII
AAAAAAAAAAAAAAAAAAAA11AAAAAA111IIIIIIIIIIIIIIIIIIIIIIIIIIIIIIIII
AAAAAAAAAAAAAAAAAAAA11AAAAAAA111IIIIIIIIIIIIIIIIIIIIIIIIIIIIIIII
AAAAAAAAAAAAAAAAAAAA11AAAAAAAA111IIIIIIIIIIIIIIIIIIIIIIIIIIIIIII
AAAAAAAAAAAAAAAAAAAA11AAAAAAAAA111IIIIIIIIIIIIIIIIIIIIIIIIIIIIII
AAAAAAAAAAAAAAAAAAAA11AAAAAAAAAA111IIIIIIIIIIIIIIIIIIIIIIIIIIIII
AAAAAAAAAAAAAAAAAAAA11AAAAAAAAAAA111IIIIIIIIIIIIIIIIIIIIIIIIIIII
AAAAAAAAAAAAAAAAAAAA11AAAAAAAAAAAA111IIIIIIIIIIIIIIIIIIIIIIIIIII
AAAAAAAAAAAAAAAAAAAA11AAAAAAAAAAAAA111IIIIIIIIIIIIIIIIIIIIIIIIII
AAAAAAAAAAAAAAAAAAAA11AAAAAAAAAAAAAA111IIIIIIIIIIIIIIIIIIIIIIIII
AAAAAAAAAAAAAAAAAAAA11AAAAAAAAAAAAAAA111IIIIIIIIIIIIIIIIIIIIIIII
AAAAAAAAAAAAAAAAAAAA11AAAAAAAAAAAAAAAA111IIIIIIIIIIIIIIIIIIIIIII
AAAAAAAAAAAAAAAAAAAA11AAAAAAAAAAAAAAAAA111IIIIIIIIIIIIIIIIIIIIII
AAAAAAAAAAAAAAAAAAAA11AAAAAAAAAAAAAAAAAA111IIIIIIIIIIIIIIIIIIIII
AAAAAAAAAAAAAAAAAAAA11AAAAAAAAAAAAAAAAAAA111IIIIIIIIIIIIIIIIIIII
AAAAAAAAAAAAAAAAAAAA11AAAAAAAAAAAAAAAAAAAA111IIIIIIIIIIIIIIIIIII
AAAAAAAAAAAAAAAAAAAA11AAAAAAAAAAAAAAAAAAAAA111IIIIIIIIIIIIIIIIII
AAAAAAAAAAAAAAAAAAAA11AAAAAAAAAAAAAAAAAAAAAA111IIIIIIIIIIIIIIIII
AAAAAAAAAAAAAAAAAAAA11AAAAAAAAAAAAAAAAAAAAAAA111IIIIIIIIIIIIIIII
AAAAAAAAAAAAAAAAAAAA11AAAAAAAAAAAAAAAAAAAAAAAA111IIIIIIIIIIIIIII
AAAAAAAAAAAAAAAAAAAA11AAAAAAAAAAAAAAAAAAAAAAAAA111IIIIIIIIIIIIII
AAAAAAAAAAAAAAAAAAAA11AAAAAAAAAAAAAAAAAAAAAAAAAA111IIIIIIIIIIIII
AAAAAAAAAAAAAAAAAAAA11AAAAAAAAAAAAAAAAAAAAAAAAAAA111IIIIIIIIIIII
AAAAAAAAAAAAAAAAAAAA11AAAAAAAAAAAAAAAAAAAAAAAAAAAA111IIIIIIIIIII
AAAAAAAAAAAAAAAAAAAA11AAAAAAAAAAAAAAAAAAAAAAAAAAAA11A111IIIIIIII
AAAAAAAAAAAAAAAAAAAA11AAAAAAAAAAAAAAAAAAAAAAAAAAAA11AA111IIIIIII
AAAAAAAAAAAAAAAAAAAA11AAAAAAAAAAAAAAAAAAAAAAAAAAAA11AAA111IIIIII
AAAAAAAAAAAAAAAAAAAA11AAAAAAAAAAAAAAAAAAAAAAAAAAAA11AAAA111IIIII
AAAAAAAAAAAAAAAAAAAA11AAAAAAAAAAAAAAAAAAAAAAAAAAAA11AAAAA111IIII
AAAAAAAAAAAAAAAAAAAA11AAAAAAAAAAAAAAAAAAAAAAAAAAAA11AAAAAA111III
AAAAAAAAAAAAAAAAAAAA11AAAAAAAAAAAAAAAAAAAAAAAAAAAA11AAAAAAA111II
AAAAAAAAAAAAAAAAAAAA11AAAAAAAAAAAAAAAAAAAAAAAAAAAA11AAAAAAAA111I
AAAAAAAAAAAAAAAAAAAA11AAAAAAAAAAAAAAAAAAAAAAAAAAAA11AAAAAAAAA111
AAAAAAAAAAAAAAAAAAAA11AAAAAAAAAAAAAAAAAAAAAAAAAAAA11AAAAAAAAAA11
AAAAAAAAAAAAAAAAAAAA11AAAAAAAAAAAAAAAAAAAAAAAAAAAA11AAAAAAAAAAA1
AAAAAAAAAAAAAAAAAAAA11AAAAAAAAAAAAAAAAAAAAAAAAAAAA11AAAAAAAAAAAA
[MLOP] Prefetch Degree Mean: 3.14497
[MLOP] Prefetch Degree SD: 3.1354
[MLOP] Max Score Left Mean (%): 17.8544
[MLOP] Max Score Left SD (%): 16.2536
[MLOP] Max Score Right Mean (%): 51.6363
[MLOP] Max Score Right SD (%): 12.0752
LLC TOTAL     ACCESS:   20617953  HIT:   13680287  MISS:    6937666  HIT %:    66.3513  MISS %:    33.6487   MPKI: 11.8993
LLC LOAD      ACCESS:    3355735  HIT:    1863834  MISS:    1491901  HIT %:    55.5418  MISS %:    44.4582   MPKI: 2.55888
LLC RFO       ACCESS:     128015  HIT:      85970  MISS:      42045  HIT %:    67.1562  MISS %:    32.8438   MPKI: 0.0721147
LLC PREFETCH  ACCESS:   15390263  HIT:   10131154  MISS:    5259109  HIT %:    65.8283  MISS %:    34.1717   MPKI: 9.02032
LLC WRITEBACK ACCESS:    1462291  HIT:    1374358  MISS:      87933  HIT %:    93.9866  MISS %:    6.01337   MPKI: 0.150821

RAW hits: 9941947
Loads Generated: 315248978
Loads sent to L1D: 305307029
Stores Generated: 29469432
Stores sent to L1D: 29469430

CPU 2 cumulative IPC: 1.60063 instructions: 1427060984 cycles: 891564582
ITLB TOTAL     ACCESS:  189038121  HIT:  189038121  MISS:          0  HIT %:        100  MISS %:          0   MPKI: 0
ITLB LOAD      ACCESS:          0  HIT:          0  MISS:          0  HIT %:       -nan  MISS %:       -nan   MPKI: 0
ITLB RFO       ACCESS:          0  HIT:          0  MISS:          0  HIT %:       -nan  MISS %:       -nan   MPKI: 0
ITLB PREFETCH  ACCESS:          0  HIT:          0  MISS:          0  HIT %:       -nan  MISS %:       -nan   MPKI: 0
ITLB WRITEBACK ACCESS:          0  HIT:          0  MISS:          0  HIT %:       -nan  MISS %:       -nan   MPKI: 0
DTLB TOTAL     ACCESS:  270417597  HIT:  162799851  MISS:  107617746  HIT %:    60.2031  MISS %:    39.7969   MPKI: 75.4122
DTLB LOAD      ACCESS:          0  HIT:          0  MISS:          0  HIT %:       -nan  MISS %:       -nan   MPKI: 0
DTLB RFO       ACCESS:          0  HIT:          0  MISS:          0  HIT %:       -nan  MISS %:       -nan   MPKI: 0
DTLB PREFETCH  ACCESS:          0  HIT:          0  MISS:          0  HIT %:       -nan  MISS %:       -nan   MPKI: 0
DTLB WRITEBACK ACCESS:          0  HIT:          0  MISS:          0  HIT %:       -nan  MISS %:       -nan   MPKI: 0
STLB TOTAL     ACCESS:  117777832  HIT:  117603884  MISS:     173948  HIT %:    99.8523  MISS %:   0.147692   MPKI: 0.121892
STLB LOAD      ACCESS:          0  HIT:          0  MISS:          0  HIT %:       -nan  MISS %:       -nan   MPKI: 0
STLB RFO       ACCESS:          0  HIT:          0  MISS:          0  HIT %:       -nan  MISS %:       -nan   MPKI: 0
STLB PREFETCH  ACCESS:          0  HIT:          0  MISS:          0  HIT %:       -nan  MISS %:       -nan   MPKI: 0
STLB WRITEBACK ACCESS:          0  HIT:          0  MISS:          0  HIT %:       -nan  MISS %:       -nan   MPKI: 0
L1D TOTAL     ACCESS:  426678801  HIT:  249290647  MISS:  177388154  HIT %:    58.4258  MISS %:    41.5742   MPKI: 124.303
L1D LOAD      ACCESS:  242639983  HIT:   90038677  MISS:  152601306  HIT %:    37.1079  MISS %:    62.8921   MPKI: 106.934
L1D RFO       ACCESS:  161764856  HIT:  150318630  MISS:   11446226  HIT %:    92.9242  MISS %:    7.07584   MPKI: 8.02084
L1D PREFETCH  ACCESS:   22273962  HIT:    8933340  MISS:   13340622  HIT %:    40.1067  MISS %:    59.8933   MPKI: 9.34832
L1D WRITEBACK ACCESS:          0  HIT:          0  MISS:          0  HIT %:       -nan  MISS %:       -nan   MPKI: 0
L1I TOTAL     ACCESS:  249211674  HIT:  249211674  MISS:          0  HIT %:        100  MISS %:          0   MPKI: 0
L1I LOAD      ACCESS:  249211674  HIT:  249211674  MISS:          0  HIT %:        100  MISS %:          0   MPKI: 0
L1I RFO       ACCESS:          0  HIT:          0  MISS:          0  HIT %:       -nan  MISS %:       -nan   MPKI: 0
L1I PREFETCH  ACCESS:          0  HIT:          0  MISS:          0  HIT %:       -nan  MISS %:       -nan   MPKI: 0
L1I WRITEBACK ACCESS:          0  HIT:          0  MISS:          0  HIT %:       -nan  MISS %:       -nan   MPKI: 0
L2C TOTAL     ACCESS:  188233171  HIT:  169743644  MISS:   18489527  HIT %:    90.1773  MISS %:    9.82267   MPKI: 12.9564
L2C LOAD      ACCESS:  150139612  HIT:  142948100  MISS:    7191512  HIT %:    95.2101  MISS %:    4.78988   MPKI: 5.03939
L2C RFO       ACCESS:   11414188  HIT:   11394427  MISS:      19761  HIT %:    99.8269  MISS %:   0.173127   MPKI: 0.0138473
L2C PREFETCH  ACCESS:   13623121  HIT:    2592637  MISS:   11030484  HIT %:    19.0312  MISS %:    80.9688   MPKI: 7.72951
L2C WRITEBACK ACCESS:   12779356  HIT:   12769377  MISS:       9979  HIT %:    99.9219  MISS %:  0.0780869   MPKI: 0.00699269
PSCL5 TOTAL     ACCESS:     173948  HIT:     173948  MISS:          0  HIT %:        100  MISS %:          0   MPKI: 0
PSCL5 LOAD      ACCESS:          0  HIT:          0  MISS:          0  HIT %:       -nan  MISS %:       -nan   MPKI: 0
PSCL5 RFO       ACCESS:          0  HIT:          0  MISS:          0  HIT %:       -nan  MISS %:       -nan   MPKI: 0
PSCL5 PREFETCH  ACCESS:          0  HIT:          0  MISS:          0  HIT %:       -nan  MISS %:       -nan   MPKI: 0
PSCL5 WRITEBACK ACCESS:          0  HIT:          0  MISS:          0  HIT %:       -nan  MISS %:       -nan   MPKI: 0
PSCL4 TOTAL     ACCESS:     173948  HIT:     173948  MISS:          0  HIT %:        100  MISS %:          0   MPKI: 0
PSCL4 LOAD      ACCESS:          0  HIT:          0  MISS:          0  HIT %:       -nan  MISS %:       -nan   MPKI: 0
PSCL4 RFO       ACCESS:          0  HIT:          0  MISS:          0  HIT %:       -nan  MISS %:       -nan   MPKI: 0
PSCL4 PREFETCH  ACCESS:          0  HIT:          0  MISS:          0  HIT %:       -nan  MISS %:       -nan   MPKI: 0
PSCL4 WRITEBACK ACCESS:          0  HIT:          0  MISS:          0  HIT %:       -nan  MISS %:       -nan   MPKI: 0
PSCL3 TOTAL     ACCESS:     173948  HIT:     173948  MISS:          0  HIT %:        100  MISS %:          0   MPKI: 0
PSCL3 LOAD      ACCESS:          0  HIT:          0  MISS:          0  HIT %:       -nan  MISS %:       -nan   MPKI: 0
PSCL3 RFO       ACCESS:          0  HIT:          0  MISS:          0  HIT %:       -nan  MISS %:       -nan   MPKI: 0
PSCL3 PREFETCH  ACCESS:          0  HIT:          0  MISS:          0  HIT %:       -nan  MISS %:       -nan   MPKI: 0
PSCL3 WRITEBACK ACCESS:          0  HIT:          0  MISS:          0  HIT %:       -nan  MISS %:       -nan   MPKI: 0
PSCL2 TOTAL     ACCESS:     173948  HIT:      70915  MISS:     103033  HIT %:    40.7679  MISS %:    59.2321   MPKI: 0.0721994
PSCL2 LOAD      ACCESS:          0  HIT:          0  MISS:          0  HIT %:       -nan  MISS %:       -nan   MPKI: 0
PSCL2 RFO       ACCESS:          0  HIT:          0  MISS:          0  HIT %:       -nan  MISS %:       -nan   MPKI: 0
PSCL2 PREFETCH  ACCESS:          0  HIT:          0  MISS:          0  HIT %:       -nan  MISS %:       -nan   MPKI: 0
PSCL2 WRITEBACK ACCESS:          0  HIT:          0  MISS:          0  HIT %:       -nan  MISS %:       -nan   MPKI: 0
=== CPU 2 L1D Prefetcher Statistics ===
[MLOP] History of tracked zone:
IIIIIIIIIIIIIIIIIIIIIIIIIIIIIIIIIIIIIIIIIIIIIIIIIIIIIIIIIIIIIIII
IIIIIIIIIIIIIIIIIIIIIIIIIIIIIIIIIIIIIIIIIIIIIIIAIIIIIIIIIIIIIIII
IIIIIIIIIIIIIIIIIIIIIIIIIAIIIIIIIIIIIIIIIIIIIIIAIIIIIIIIIIIIIIII
IIIIIIIIIIIIIIIIIIIIIIIIIAIIIIIIIIIIIIIIIIIIIIAAIIIIIIIIIIIIIIII
IIIIAIIIIIIIIIIIIIIIIIIIIAIIIIIIIIIIIIIIIIIIIIAAIIIIIIIIIIIIIIII
IIIIAIIIIIIIIIIIIIIIIIIIIAAIIIIIIIIIIIIIIIIIIIAAIIIIIIIIIIIIIIII
IIIIAIIIIIIIIIIIIIIIIIIIIAAIIIIIIIIIIIIIIIIIIIAAAIIIIIIIIIIIIIII
IIIIAIIIIIIIIIIIIIIIIIIIIAAIIIIIIIIIIIIIIIIIIIAAA2IIIIIIIIIIIIII
IIIIAIIIIIIIIIIIIIIIIIIIIAA2IIIIIIIIIIIIIIIIIIAAA2IIIIIIIIIIIIII
IIIIAA2IIIIIIIIIIIIIIIIIIAA2IIIIIIIIIIIIIIIIIIAAA2IIIIIIIIIIIIII
IIIIAA2IIIIIIIIIIIIIIIIIIAAA2IIIIIIIIIIIIIIIIIAAA2IIIIIIIIIIIIII
IIIIAA2IIIIIIIIIIIIIIIIIIAAA2IIIIIIIIIIIIIIIIIAAAA2IIIIIIIIIIIII
IIIIAAA2IIIIIIIIIIIIIIIIIAAA2IIIIIIIIIIIIIIIIIAAAA2IIIIIIIIIIIII
IIIIAAA2IIIIIIIIIIIIIIIIIAAAA2IIIIIIIIIIIIIIIIAAAA2IIIIIIIIIIIII
IIIIAAA2IIIIIIIIIIIIIIIIIAAAA2IIIIIIIIIIIIIIIIAAAA11IIIIIIIIIIII
IIIIAAA1IIIIIIIIIIIIIIIIIAAAA2IIIIIIIIIIIIIIIIAAAA11IIIIIIIIIIII
IIIIAAA1IIIIIIIIIIIIIIIIIAAAA11IIIIIIIIIIIIIIIAAAA11IIIIIIIIIIII
IIIIAAA11IIIIIIIIIIIIIIIIAAAA11IIIIIIIIIIIIIIIAAAA11IIIIIIIIIIII
IIIIAAA11IIIIIIIIIIIIIIIIAAAA11IIIIIIIIIIIIIIIAAAAA11IIIIIIIIIII
IIIIAAAA11IIIIIIIIIIIIIIIAAAA11IIIIIIIIIIIIIIIAAAAA11IIIIIIIIIII
IIIIAAAA11IIIIIIIIIIIIIIIAAAAA11IIIIIIIIIIIIIIAAAAA11IIIIIIIIIII
IIIIAAAA11IIIIIIIIIIIIIIIAAAAA11IIIIIIIIIIIIIIAAAAAA11IIIIIIIIII
IIIIAAAAA11IIIIIIIIIIIIIIAAAAA11IIIIIIIIIIIIIIAAAAAA11IIIIIIIIII
IIIIAAAAA11IIIIIIIIIIIIIIAAAAA11IIIIIIIIIIIIIIAAAAAA111IIIIIIIII
IIIIAAAAA11IIIIIIIIIIIIIIAAAAA111IIIIIIIIIIIIIAAAAAA111IIIIIIIII
IIIIAAAAA111IIIIIIIIIIIIIAAAAA111IIIIIIIIIIIIIAAAAAA111IIIIIIIII
IIIIAAAAA111IIIIIIIIIIIIIAAAAAA111IIIIIIIIIIIIAAAAAA111IIIIIIIII
IIIIAAAAA111IIIIIIIIIIIIIAAAAAA111IIIIIIIIIIIIAAAAAAA111IIIIIIII
IIIIAAAAAA111IIIIIIIIIIIIAAAAAA111IIIIIIIIIIIIAAAAAAA111IIIIIIII
IIIIAAAAAA111IIIIIIIIIIIIAAAAAAA111IIIIIIIIIIIAAAAAAA111IIIIIIII
IIIIAAAAAA111IIIIIIIIIIIIAAAAAAA111IIIIIIIIIIIAAAAAAAA111IIIIIII
IIIIAAAAAAA111IIIIIIIIIIIAAAAAAA111IIIIIIIIIIIAAAAAAAA111IIIIIII
IIIIAAAAAAA111IIIIIIIIIIIAAAAAAAA111IIIIIIIIIIAAAAAAAA111IIIIIII
[...]
AAAAAAAAAAAAAAAAAAAAAAAAAAAAAAAAAAAAAAAAAAAAAAAAAAAAAAAAA1112222
AAAAAAAAAAAAAAAAAAAAAAAAAAAAAAAAAAAAAAAAAAAAAAAAAAAAAAAAAA111222
AAAAAAAAAAAAAAAAAAAAAAAAAAAAAAAAAAAAAAAAAAAAAAAAAAAAAAAAAAA11122
AAAAAAAAAAAAAAAAAAAAAAAAAAAAAAAAAAAAAAAAAAAAAAAAAAAAAAAAAAAA1112
AAAAAAAAAAAAAAAAAAAAAAAAAAAAAAAAAAAAAAAAAAAAAAAAAAAAAAAAAAAAA111
AAAAAAAAAAAAAAAAAAAAAAAAAAAAAAAAAAAAAAAAAAAAAAAAAAAAAAAAAAAAAA11
AAAAAAAAAAAAAAAAAAAAAAAAAAAAAAAAAAAAAAAAAAAAAAAAAAAAAAAAAAAAAAA1
AAAAAAAAAAAAAAAAAAAAAAAAAAAAAAAAAAAAAAAAAAAAAAAAAAAAAAAAAAAAAAAA
A1I111IIIIIIIIIIIIIIIIIIIIIIIIIIIIIIIIIIIIIIIIIIIIIIIIIIIIIIIIII
AA11111IIIIIIIIIIIIIIIIIIIIIIIIIIIIIIIIIIIIIIIIIIIIIIIIIIIIIIIII
AAA11111IIIIIIIIIIIIIIIIIIIIIIIIIIIIIIIIIIIIIIIIIIIIIIIIIIIIIIII
AAAA11111IIIIIIIIIIIIIIIIIIIIIIIIIIIIIIIIIIIIIIIIIIIIIIIIIIIIIII
AAAAA11111IIIIIIIIIIIIIIIIIIIIIIIIIIIIIIIIIIIIIIIIIIIIIIIIIIIIII
AAAAAA11111IIIIIIIIIIIIIIIIIIIIIIIIIIIIIIIIIIIIIIIIIIIIIIIIIIIII
AAAAAAA11111IIIIIIIIIIIIIIIIIIIIIIIIIIIIIIIIIIIIIIIIIIIIIIIIIIII
AAAAAAAA11111IIIIIIIIIIIIIIIIIIIIIIIIIIIIIIIIIIIIIIIIIIIIIIIIIII
AAAAAAAAA11111IIIIIIIIIIIIIIIIIIIIIIIIIIIIIIIIIIIIIIIIIIIIIIIIII
AAAAAAAAAA11111IIIIIIIIIIIIIIIIIIIIIIIIIIIIIIIIIIIIIIIIIIIIIIIII
AAAAAAAAAAA11111IIIIIIIIIIIIIIIIIIIIIIIIIIIIIIIIIIIIIIIIIIIIIIII
AAAAAAAAAAAA11111IIIIIIIIIIIIIIIIIIIIIIIIIIIIIIIIIIIIIIIIIIIIIII
AAAAAAAAAAAAA11111IIIIIIIIIIIIIIIIIIIIIIIIIIIIIIIIIIIIIIIIIIIIII
AAAAAAAAAAAAAA11111IIIIIIIIIIIIIIIIIIIIIIIIIIIIIIIIIIIIIIIIIIIII
AAAAAAAAAAAAAAA11111IIIIIIIIIIIIIIIIIIIIIIIIIIIIIIIIIIIIIIIIIIII
AAAAAAAAAAAAAAAA11111IIIIIIIIIIIIIIIIIIIIIIIIIIIIIIIIIIIIIIIIIII
AAAAAAAAAAAAAAAAA11111IIIIIIIIIIIIIIIIIIIIIIIIIIIIIIIIIIIIIIIIII
AAAAAAAAAAAAAAAAAA11111IIIIIIIIIIIIIIIIIIIIIIIIIIIIIIIIIIIIIIIII
AAAAAAAAAAAAAAAAAAA11111IIIIIIIIIIIIIIIIIIIIIIIIIIIIIIIIIIIIIIII
AAAAAAAAAAAAAAAAAAAA11111IIIIIIIIIIIIIIIIIIIIIIIIIIIIIIIIIIIIIII
AAAAAAAAAAAAAAAAAAAAA11111IIIIIIIIIIIIIIIIIIIIIIIIIIIIIIIIIIIIII
AAAAAAAAAAAAAAAAAAAAAA11111IIIIIIIIIIIIIIIIIIIIIIIIIIIIIIIIIIIII
AAAAAAAAAAAAAAAAAAAAAAA11111IIIIIIIIIIIIIIIIIIIIIIIIIIIIIIIIIIII
AAAAAAAAAAAAAAAAAAAAAAAA11111IIIIIIIIIIIIIIIIIIIIIIIIIIIIIIIIIII
AAAAAAAAAAAAAAAAAAAAAAAAA11111IIIIIIIIIIIIIIIIIIIIIIIIIIIIIIIIII
AAAAAAAAAAAAAAAAAAAAAAAAAA11111IIIIIIIIIIIIIIIIIIIIIIIIIIIIIIIII
AAAAAAAAAAAAAAAAAAAAAAAAAAA11111IIIIIIIIIIIIIIIIIIIIIIIIIIIIIIII
AAAAAAAAAAAAAAAAAAAAAAAAAAAA11111IIIIIIIIIIIIIIIIIIIIIIIIIIIIIII
AAAAAAAAAAAAAAAAAAAAAAAAAAAAA11111IIIIIIIIIIIIIIIIIIIIIIIIIIIIII
AAAAAAAAAAAAAAAAAAAAAAAAAAAAAA11111IIIIIIIIIIIIIIIIIIIIIIIIIIIII
AAAAAAAAAAAAAAAAAAAAAAAAAAAAAAA11111IIIIIIIIIIIIIIIIIIIIIIIIIIII
AAAAAAAAAAAAAAAAAAAAAAAAAAAAAAAA11111IIIIIIIIIIIIIIIIIIIIIIIIIII
AAAAAAAAAAAAAAAAAAAAAAAAAAAAAAAAA11111IIIIIIIIIIIIIIIIIIIIIIIIII
AAAAAAAAAAAAAAAAAAAAAAAAAAAAAAAAAA11111IIIIIIIIIIIIIIIIIIIIIIIII
AAAAAAAAAAAAAAAAAAAAAAAAAAAAAAAAAAA11111IIIIIIIIIIIIIIIIIIIIIIII
AAAAAAAAAAAAAAAAAAAAAAAAAAAAAAAAAAAA11111IIIIIIIIIIIIIIIIIIIIIII
AAAAAAAAAAAAAAAAAAAAAAAAAAAAAAAAAAAAA11111IIIIIIIIIIIIIIIIIIIIII
AAAAAAAAAAAAAAAAAAAAAAAAAAAAAAAAAAAAAA11111IIIIIIIIIIIIIIIIIIIII
AAAAAAAAAAAAAAAAAAAAAAAAAAAAAAAAAAAAAAA11111IIIIIIIIIIIIIIIIIIII
AAAAAAAAAAAAAAAAAAAAAAAAAAAAAAAAAAAAAAAA11111IIIIIIIIIIIIIIIIIII
AAAAAAAAAAAAAAAAAAAAAAAAAAAAAAAAAAAAAAAAA11111IIIIIIIIIIIIIIIIII
AAAAAAAAAAAAAAAAAAAAAAAAAAAAAAAAAAAAAAAAAA11111IIIIIIIIIIIIIIIII
AAAAAAAAAAAAAAAAAAAAAAAAAAAAAAAAAAAAAAAAAAA11111IIIIIIIIIIIIIIII
AAAAAAAAAAAAAAAAAAAAAAAAAAAAAAAAAAAAAAAAAAAA11111IIIIIIIIIIIIIII
AAAAAAAAAAAAAAAAAAAAAAAAAAAAAAAAAAAAAAAAAAAAA11111IIIIIIIIIIIIII
AAAAAAAAAAAAAAAAAAAAAAAAAAAAAAAAAAAAAAAAAAAAAA11111IIIIIIIIIIIII
AAAAAAAAAAAAAAAAAAAAAAAAAAAAAAAAAAAAAAAAAAAAAAA11111IIIIIIIIIIII
AAAAAAAAAAAAAAAAAAAAAAAAAAAAAAAAAAAAAAAAAAAAAAAA11111IIIIIIIIIII
AAAAAAAAAAAAAAAAAAAAAAAAAAAAAAAAAAAAAAAAAAAAAAAAA11111IIIIIIIIII
AAAAAAAAAAAAAAAAAAAAAAAAAAAAAAAAAAAAAAAAAAAAAAAAAA11111IIIIIIIII
AAAAAAAAAAAAAAAAAAAAAAAAAAAAAAAAAAAAAAAAAAAAAAAAAAA11111IIIIIIII
AAAAAAAAAAAAAAAAAAAAAAAAAAAAAAAAAAAAAAAAAAAAAAAAAAAA11111IIIIIII
AAAAAAAAAAAAAAAAAAAAAAAAAAAAAAAAAAAAAAAAAAAAAAAAAAAAA11111IIIIII
AAAAAAAAAAAAAAAAAAAAAAAAAAAAAAAAAAAAAAAAAAAAAAAAAAAAAA11111IIIII
AAAAAAAAAAAAAAAAAAAAAAAAAAAAAAAAAAAAAAAAAAAAAAAAAAAAAAA11111IIII
AAAAAAAAAAAAAAAAAAAAAAAAAAAAAAAAAAAAAAAAAAAAAAAAAAAAAAAA11111III
AAAAAAAAAAAAAAAAAAAAAAAAAAAAAAAAAAAAAAAAAAAAAAAAAAAAAAAAA11111II
AAAAAAAAAAAAAAAAAAAAAAAAAAAAAAAAAAAAAAAAAAAAAAAAAAAAAAAAAA11111I
AAAAAAAAAAAAAAAAAAAAAAAAAAAAAAAAAAAAAAAAAAAAAAAAAAAAAAAAAAA11111
AAAAAAAAAAAAAAAAAAAAAAAAAAAAAAAAAAAAAAAAAAAAAAAAAAAAAAAAAAAA1111
AAAAAAAAAAAAAAAAAAAAAAAAAAAAAAAAAAAAAAAAAAAAAAAAAAAAAAAAAAAAA111
AAAAAAAAAAAAAAAAAAAAAAAAAAAAAAAAAAAAAAAAAAAAAAAAAAAAAAAAAAAAAA11
AAAAAAAAAAAAAAAAAAAAAAAAAAAAAAAAAAAAAAAAAAAAAAAAAAAAAAAAAAAAAAA1
AAAAAAAAAAAAAAAAAAAAAAAAAAAAAAAAAAAAAAAAAAAAAAAAAAAAAAAAAAAAAAAA
A1I111IIIIIIIIIIIIIIIIIIIIIIIIIIIIIIIIIIIIIIIIIIIIIIIIIIIIIIIIII
AA11111IIIIIIIIIIIIIIIIIIIIIIIIIIIIIIIIIIIIIIIIIIIIIIIIIIIIIIIII
AAA11111IIIIIIIIIIIIIIIIIIIIIIIIIIIIIIIIIIIIIIIIIIIIIIIIIIIIIIII
AAAA11111IIIIIIIIIIIIIIIIIIIIIIIIIIIIIIIIIIIIIIIIIIIIIIIIIIIIIII
AAAAA11111IIIIIIIIIIIIIIIIIIIIIIIIIIIIIIIIIIIIIIIIIIIIIIIIIIIIII
AAAAAA11111IIIIIIIIIIIIIIIIIIIIIIIIIIIIIIIIIIIIIIIIIIIIIIIIIIIII
AAAAAAA11111IIIIIIIIIIIIIIIIIIIIIIIIIIIIIIIIIIIIIIIIIIIIIIIIIIII
AAAAAAAA11111IIIIIIIIIIIIIIIIIIIIIIIIIIIIIIIIIIIIIIIIIIIIIIIIIII
AAAAAAAAA11111IIIIIIIIIIIIIIIIIIIIIIIIIIIIIIIIIIIIIIIIIIIIIIIIII
AAAAAAAAAA11111IIIIIIIIIIIIIIIIIIIIIIIIIIIIIIIIIIIIIIIIIIIIIIIII
AAAAAAAAAAA11111IIIIIIIIIIIIIIIIIIIIIIIIIIIIIIIIIIIIIIIIIIIIIIII
AAAAAAAAAAAA11111IIIIIIIIIIIIIIIIIIIIIIIIIIIIIIIIIIIIIIIIIIIIIII
AAAAAAAAAAAAA11111IIIIIIIIIIIIIIIIIIIIIIIIIIIIIIIIIIIIIIIIIIIIII
AAAAAAAAAAAAAA11111IIIIIIIIIIIIIIIIIIIIIIIIIIIIIIIIIIIIIIIIIIIII
AAAAAAAAAAAAAAA11111IIIIIIIIIIIIIIIIIIIIIIIIIIIIIIIIIIIIIIIIIIII
AAAAAAAAAAAAAAAA11111IIIIIIIIIIIIIIIIIIIIIIIIIIIIIIIIIIIIIIIIIII
AAAAAAAAAAAAAAAAA11111IIIIIIIIIIIIIIIIIIIIIIIIIIIIIIIIIIIIIIIIII
AAAAAAAAAAAAAAAAAA11111IIIIIIIIIIIIIIIIIIIIIIIIIIIIIIIIIIIIIIIII
AAAAAAAAAAAAAAAAAAA11111IIIIIIIIIIIIIIIIIIIIIIIIIIIIIIIIIIIIIIII
AAAAAAAAAAAAAAAAAAAA11111IIIIIIIIIIIIIIIIIIIIIIIIIIIIIIIIIIIIIII
AAAAAAAAAAAAAAAAAAAAA11111IIIIIIIIIIIIIIIIIIIIIIIIIIIIIIIIIIIIII
AAAAAAAAAAAAAAAAAAAAAA11111IIIIIIIIIIIIIIIIIIIIIIIIIIIIIIIIIIIII
AAAAAAAAAAAAAAAAAAAAAAA11111IIIIIIIIIIIIIIIIIIIIIIIIIIIIIIIIIIII
AAAAAAAAAAAAAAAAAAAAAAAA11111IIIIIIIIIIIIIIIIIIIIIIIIIIIIIIIIIII
AAAAAAAAAAAAAAAAAAAAAAAAA11111IIIIIIIIIIIIIIIIIIIIIIIIIIIIIIIIII
AAAAAAAAAAAAAAAAAAAAAAAAAA11111IIIIIIIIIIIIIIIIIIIIIIIIIIIIIIIII
AAAAAAAAAAAAAAAAAAAAAAAAAAA11111IIIIIIIIIIIIIIIIIIIIIIIIIIIIIIII
AAAAAAAAAAAAAAAAAAAAAAAAAAAA11111IIIIIIIIIIIIIIIIIIIIIIIIIIIIIII
AAAAAAAAAAAAAAAAAAAAAAAAAAAAA11111IIIIIIIIIIIIIIIIIIIIIIIIIIIIII
AAAAAAAAAAAAAAAAAAAAAAAAAAAAAA11111IIIIIIIIIIIIIIIIIIIIIIIIIIIII
AAAAAAAAAAAAAAAAAAAAAAAAAAAAAAA11111IIIIIIIIIIIIIIIIIIIIIIIIIIII
AAAAAAAAAAAAAAAAAAAAAAAAAAAAAAAA11111IIIIIIIIIIIIIIIIIIIIIIIIIII
AAAAAAAAAAAAAAAAAAAAAAAAAAAAAAAAA11111IIIIIIIIIIIIIIIIIIIIIIIIII
AAAAAAAAAAAAAAAAAAAAAAAAAAAAAAAAAA11111IIIIIIIIIIIIIIIIIIIIIIIII
AAAAAAAAAAAAAAAAAAAAAAAAAAAAAAAAAAA11111IIIIIIIIIIIIIIIIIIIIIIII
AAAAAAAAAAAAAAAAAAAAAAAAAAAAAAAAAAAA11111IIIIIIIIIIIIIIIIIIIIIII
AAAAAAAAAAAAAAAAAAAAAAAAAAAAAAAAAAAAA11111IIIIIIIIIIIIIIIIIIIIII
AAAAAAAAAAAAAAAAAAAAAAAAAAAAAAAAAAAAAA11111IIIIIIIIIIIIIIIIIIIII
AAAAAAAAAAAAAAAAAAAAAAAAAAAAAAAAAAAAAAA11111IIIIIIIIIIIIIIIIIIII
AAAAAAAAAAAAAAAAAAAAAAAAAAAAAAAAAAAAAAAA11111IIIIIIIIIIIIIIIIIII
AAAAAAAAAAAAAAAAAAAAAAAAAAAAAAAAAAAAAAAAA11111IIIIIIIIIIIIIIIIII
AAAAAAAAAAAAAAAAAAAAAAAAAAAAAAAAAAAAAAAAAA11111IIIIIIIIIIIIIIIII
AAAAAAAAAAAAAAAAAAAAAAAAAAAAAAAAAAAAAAAAAAA11111IIIIIIIIIIIIIIII
AAAAAAAAAAAAAAAAAAAAAAAAAAAAAAAAAAAAAAAAAAAA11111IIIIIIIIIIIIIII
AAAAAAAAAAAAAAAAAAAAAAAAAAAAAAAAAAAAAAAAAAAAA11111IIIIIIIIIIIIII
AAAAAAAAAAAAAAAAAAAAAAAAAAAAAAAAAAAAAAAAAAAAAA11111IIIIIIIIIIIII
AAAAAAAAAAAAAAAAAAAAAAAAAAAAAAAAAAAAAAAAAAAAAAA11111IIIIIIIIIIII
AAAAAAAAAAAAAAAAAAAAAAAAAAAAAAAAAAAAAAAAAAAAAAAA11111IIIIIIIIIII
AAAAAAAAAAAAAAAAAAAAAAAAAAAAAAAAAAAAAAAAAAAAAAAAA11111IIIIIIIIII
AAAAAAAAAAAAAAAAAAAAAAAAAAAAAAAAAAAAAAAAAAAAAAAAAA11111IIIIIIIII
AAAAAAAAAAAAAAAAAAAAAAAAAAAAAAAAAAAAAAAAAAAAAAAAAAA11111IIIIIIII
AAAAAAAAAAAAAAAAAAAAAAAAAAAAAAAAAAAAAAAAAAAAAAAAAAAA11111IIIIIII
AAAAAAAAAAAAAAAAAAAAAAAAAAAAAAAAAAAAAAAAAAAAAAAAAAAAA11111IIIIII
AAAAAAAAAAAAAAAAAAAAAAAAAAAAAAAAAAAAAAAAAAAAAAAAAAAAAA11111IIIII
AAAAAAAAAAAAAAAAAAAAAAAAAAAAAAAAAAAAAAAAAAAAAAAAAAAAAAA11111IIII
AAAAAAAAAAAAAAAAAAAAAAAAAAAAAAAAAAAAAAAAAAAAAAAAAAAAAAAA11111III
AAAAAAAAAAAAAAAAAAAAAAAAAAAAAAAAAAAAAAAAAAAAAAAAAAAAAAAAA11111II
AAAAAAAAAAAAAAAAAAAAAAAAAAAAAAAAAAAAAAAAAAAAAAAAAAAAAAAAAA11111I
AAAAAAAAAAAAAAAAAAAAAAAAAAAAAAAAAAAAAAAAAAAAAAAAAAAAAAAAAAA11111
AAAAAAAAAAAAAAAAAAAAAAAAAAAAAAAAAAAAAAAAAAAAAAAAAAAAAAAAAAAA1111
AAAAAAAAAAAAAAAAAAAAAAAAAAAAAAAAAAAAAAAAAAAAAAAAAAAAAAAAAAAAA111
AAAAAAAAAAAAAAAAAAAAAAAAAAAAAAAAAAAAAAAAAAAAAAAAAAAAAAAAAAAAAA11
AAAAAAAAAAAAAAAAAAAAAAAAAAAAAAAAAAAAAAAAAAAAAAAAAAAAAAAAAAAAAAA1
AAAAAAAAAAAAAAAAAAAAAAAAAAAAAAAAAAAAAAAAAAAAAAAAAAAAAAAAAAAAAAAA
A11111IIIIIIIIIIIIIIIIIIIIIIIIIIIIIIIIIIIIIIIIIIIIIIIIIIIIIIIIII
AA11111IIIIIIIIIIIIIIIIIIIIIIIIIIIIIIIIIIIIIIIIIIIIIIIIIIIIIIIII
AAA11111IIIIIIIIIIIIIIIIIIIIIIIIIIIIIIIIIIIIIIIIIIIIIIIIIIIIIIII
AAAA11111IIIIIIIIIIIIIIIIIIIIIIIIIIIIIIIIIIIIIIIIIIIIIIIIIIIIIII
AAAAA11111IIIIIIIIIIIIIIIIIIIIIIIIIIIIIIIIIIIIIIIIIIIIIIIIIIIIII
AAAAAA11111IIIIIIIIIIIIIIIIIIIIIIIIIIIIIIIIIIIIIIIIIIIIIIIIIIIII
AAAAAAA11111IIIIIIIIIIIIIIIIIIIIIIIIIIIIIIIIIIIIIIIIIIIIIIIIIIII
AAAAAAAA11111IIIIIIIIIIIIIIIIIIIIIIIIIIIIIIIIIIIIIIIIIIIIIIIIIII
AAAAAAAAA11111IIIIIIIIIIIIIIIIIIIIIIIIIIIIIIIIIIIIIIIIIIIIIIIIII
AAAAAAAAAA11111IIIIIIIIIIIIIIIIIIIIIIIIIIIIIIIIIIIIIIIIIIIIIIIII
AAAAAAAAAAA11111IIIIIIIIIIIIIIIIIIIIIIIIIIIIIIIIIIIIIIIIIIIIIIII
AAAAAAAAAAAA11111IIIIIIIIIIIIIIIIIIIIIIIIIIIIIIIIIIIIIIIIIIIIIII
AAAAAAAAAAAAA11111IIIIIIIIIIIIIIIIIIIIIIIIIIIIIIIIIIIIIIIIIIIIII
AAAAAAAAAAAAAA11111IIIIIIIIIIIIIIIIIIIIIIIIIIIIIIIIIIIIIIIIIIIII
AAAAAAAAAAAAAAA11111IIIIIIIIIIIIIIIIIIIIIIIIIIIIIIIIIIIIIIIIIIII
AAAAAAAAAAAAAAAA11111IIIIIIIIIIIIIIIIIIIIIIIIIIIIIIIIIIIIIIIIIII
AAAAAAAAAAAAAAAAA11111IIIIIIIIIIIIIIIIIIIIIIIIIIIIIIIIIIIIIIIIII
AAAAAAAAAAAAAAAAAA11111IIIIIIIIIIIIIIIIIIIIIIIIIIIIIIIIIIIIIIIII
AAAAAAAAAAAAAAAAAAA11111IIIIIIIIIIIIIIIIIIIIIIIIIIIIIIIIIIIIIIII
AAAAAAAAAAAAAAAAAAAA11111IIIIIIIIIIIIIIIIIIIIIIIIIIIIIIIIIIIIIII
AAAAAAAAAAAAAAAAAAAAA11111IIIIIIIIIIIIIIIIIIIIIIIIIIIIIIIIIIIIII
AAAAAAAAAAAAAAAAAAAAAA11111IIIIIIIIIIIIIIIIIIIIIIIIIIIIIIIIIIIII
AAAAAAAAAAAAAAAAAAAAAAA11111IIIIIIIIIIIIIIIIIIIIIIIIIIIIIIIIIIII
AAAAAAAAAAAAAAAAAAAAAAAA11111IIIIIIIIIIIIIIIIIIIIIIIIIIIIIIIIIII
AAAAAAAAAAAAAAAAAAAAAAAAA11111IIIIIIIIIIIIIIIIIIIIIIIIIIIIIIIIII
AAAAAAAAAAAAAAAAAAAAAAAAAA11111IIIIIIIIIIIIIIIIIIIIIIIIIIIIIIIII
AAAAAAAAAAAAAAAAAAAAAAAAAAA11111IIIIIIIIIIIIIIIIIIIIIIIIIIIIIIII
AAAAAAAAAAAAAAAAAAAAAAAAAAAA11111IIIIIIIIIIIIIIIIIIIIIIIIIIIIIII
AAAAAAAAAAAAAAAAAAAAAAAAAAAAA11111IIIIIIIIIIIIIIIIIIIIIIIIIIIIII
AAAAAAAAAAAAAAAAAAAAAAAAAAAAAA11111IIIIIIIIIIIIIIIIIIIIIIIIIIIII
AAAAAAAAAAAAAAAAAAAAAAAAAAAAAAA11111IIIIIIIIIIIIIIIIIIIIIIIIIIII
AAAAAAAAAAAAAAAAAAAAAAAAAAAAAAAA11111IIIIIIIIIIIIIIIIIIIIIIIIIII
AAAAAAAAAAAAAAAAAAAAAAAAAAAAAAAAA11111IIIIIIIIIIIIIIIIIIIIIIIIII
AAAAAAAAAAAAAAAAAAAAAAAAAAAAAAAAAA11111IIIIIIIIIIIIIIIIIIIIIIIII
AAAAAAAAAAAAAAAAAAAAAAAAAAAAAAAAAAA11111IIIIIIIIIIIIIIIIIIIIIIII
AAAAAAAAAAAAAAAAAAAAAAAAAAAAAAAAAAAA11111IIIIIIIIIIIIIIIIIIIIIII
AAAAAAAAAAAAAAAAAAAAAAAAAAAAAAAAAAAAA11111IIIIIIIIIIIIIIIIIIIIII
AAAAAAAAAAAAAAAAAAAAAAAAAAAAAAAAAAAAAA11111IIIIIIIIIIIIIIIIIIIII
AAAAAAAAAAAAAAAAAAAAAAAAAAAAAAAAAAAAAAA11111IIIIIIIIIIIIIIIIIIII
AAAAAAAAAAAAAAAAAAAAAAAAAAAAAAAAAAAAAAAA11111IIIIIIIIIIIIIIIIIII
AAAAAAAAAAAAAAAAAAAAAAAAAAAAAAAAAAAAAAAAA11111IIIIIIIIIIIIIIIIII
AAAAAAAAAAAAAAAAAAAAAAAAAAAAAAAAAAAAAAAAAA11111IIIIIIIIIIIIIIIII
AAAAAAAAAAAAAAAAAAAAAAAAAAAAAAAAAAAAAAAAAAA11111IIIIIIIIIIIIIIII
AAAAAAAAAAAAAAAAAAAAAAAAAAAAAAAAAAAAAAAAAAAA11111IIIIIIIIIIIIIII
AAAAAAAAAAAAAAAAAAAAAAAAAAAAAAAAAAAAAAAAAAAAA11111IIIIIIIIIIIIII
AAAAAAAAAAAAAAAAAAAAAAAAAAAAAAAAAAAAAAAAAAAAAA11111IIIIIIIIIIIII
AAAAAAAAAAAAAAAAAAAAAAAAAAAAAAAAAAAAAAAAAAAAAAA11111IIIIIIIIIIII
AAAAAAAAAAAAAAAAAAAAAAAAAAAAAAAAAAAAAAAAAAAAAAAA11111IIIIIIIIIII
AAAAAAAAAAAAAAAAAAAAAAAAAAAAAAAAAAAAAAAAAAAAAAAAA11111IIIIIIIIII
AAAAAAAAAAAAAAAAAAAAAAAAAAAAAAAAAAAAAAAAAAAAAAAAAA11111IIIIIIIII
AAAAAAAAAAAAAAAAAAAAAAAAAAAAAAAAAAAAAAAAAAAAAAAAAAA11111IIIIIIII
AAAAAAAAAAAAAAAAAAAAAAAAAAAAAAAAAAAAAAAAAAAAAAAAAAAA11111IIIIIII
AAAAAAAAAAAAAAAAAAAAAAAAAAAAAAAAAAAAAAAAAAAAAAAAAAAAA11111IIIIII
AAAAAAAAAAAAAAAAAAAAAAAAAAAAAAAAAAAAAAAAAAAAAAAAAAAAAA11111IIIII
AAAAAAAAAAAAAAAAAAAAAAAAAAAAAAAAAAAAAAAAAAAAAAAAAAAAAAA11111IIII
AAAAAAAAAAAAAAAAAAAAAAAAAAAAAAAAAAAAAAAAAAAAAAAAAAAAAAAA11111III
AAAAAAAAAAAAAAAAAAAAAAAAAAAAAAAAAAAAAAAAAAAAAAAAAAAAAAAAA11111II
AAAAAAAAAAAAAAAAAAAAAAAAAAAAAAAAAAAAAAAAAAAAAAAAAAAAAAAAAA11111I
AAAAAAAAAAAAAAAAAAAAAAAAAAAAAAAAAAAAAAAAAAAAAAAAAAAAAAAAAAA11111
AAAAAAAAAAAAAAAAAAAAAAAAAAAAAAAAAAAAAAAAAAAAAAAAAAAAAAAAAAAA1111
AAAAAAAAAAAAAAAAAAAAAAAAAAAAAAAAAAAAAAAAAAAAAAAAAAAAAAAAAAAAA111
AAAAAAAAAAAAAAAAAAAAAAAAAAAAAAAAAAAAAAAAAAAAAAAAAAAAAAAAAAAAAA11
AAAAAAAAAAAAAAAAAAAAAAAAAAAAAAAAAAAAAAAAAAAAAAAAAAAAAAAAAAAAAAA1
AAAAAAAAAAAAAAAAAAAAAAAAAAAAAAAAAAAAAAAAAAAAAAAAAAAAAAAAAAAAAAAA
A1I111IIIIIIIIIIIIIIIIIIIIIIIIIIIIIIIIIIIIIIIIIIIIIIIIIIIIIIIIII
AA11111IIIIIIIIIIIIIIIIIIIIIIIIIIIIIIIIIIIIIIIIIIIIIIIIIIIIIIIII
AAA11111IIIIIIIIIIIIIIIIIIIIIIIIIIIIIIIIIIIIIIIIIIIIIIIIIIIIIIII
AAAA11111IIIIIIIIIIIIIIIIIIIIIIIIIIIIIIIIIIIIIIIIIIIIIIIIIIIIIII
AAAAA11111IIIIIIIIIIIIIIIIIIIIIIIIIIIIIIIIIIIIIIIIIIIIIIIIIIIIII
AAAAAA11111IIIIIIIIIIIIIIIIIIIIIIIIIIIIIIIIIIIIIIIIIIIIIIIIIIIII
AAAAAAA11111IIIIIIIIIIIIIIIIIIIIIIIIIIIIIIIIIIIIIIIIIIIIIIIIIIII
AAAAAAAA11111IIIIIIIIIIIIIIIIIIIIIIIIIIIIIIIIIIIIIIIIIIIIIIIIIII
AAAAAAAAA11111IIIIIIIIIIIIIIIIIIIIIIIIIIIIIIIIIIIIIIIIIIIIIIIIII
AAAAAAAAAA11111IIIIIIIIIIIIIIIIIIIIIIIIIIIIIIIIIIIIIIIIIIIIIIIII
AAAAAAAAAAA11111IIIIIIIIIIIIIIIIIIIIIIIIIIIIIIIIIIIIIIIIIIIIIIII
AAAAAAAAAAAA11111IIIIIIIIIIIIIIIIIIIIIIIIIIIIIIIIIIIIIIIIIIIIIII
AAAAAAAAAAAAA11111IIIIIIIIIIIIIIIIIIIIIIIIIIIIIIIIIIIIIIIIIIIIII
AAAAAAAAAAAAAA11111IIIIIIIIIIIIIIIIIIIIIIIIIIIIIIIIIIIIIIIIIIIII
AAAAAAAAAAAAAAA11111IIIIIIIIIIIIIIIIIIIIIIIIIIIIIIIIIIIIIIIIIIII
AAAAAAAAAAAAAAAA11111IIIIIIIIIIIIIIIIIIIIIIIIIIIIIIIIIIIIIIIIIII
AAAAAAAAAAAAAAAAA11111IIIIIIIIIIIIIIIIIIIIIIIIIIIIIIIIIIIIIIIIII
AAAAAAAAAAAAAAAAAA11111IIIIIIIIIIIIIIIIIIIIIIIIIIIIIIIIIIIIIIIII
AAAAAAAAAAAAAAAAAAA11111IIIIIIIIIIIIIIIIIIIIIIIIIIIIIIIIIIIIIIII
AAAAAAAAAAAAAAAAAAAA11111IIIIIIIIIIIIIIIIIIIIIIIIIIIIIIIIIIIIIII
AAAAAAAAAAAAAAAAAAAAA11111IIIIIIIIIIIIIIIIIIIIIIIIIIIIIIIIIIIIII
AAAAAAAAAAAAAAAAAAAAAA11111IIIIIIIIIIIIIIIIIIIIIIIIIIIIIIIIIIIII
AAAAAAAAAAAAAAAAAAAAAAA11111IIIIIIIIIIIIIIIIIIIIIIIIIIIIIIIIIIII
AAAAAAAAAAAAAAAAAAAAAAAA11111IIIIIIIIIIIIIIIIIIIIIIIIIIIIIIIIIII
AAAAAAAAAAAAAAAAAAAAAAAAA11111IIIIIIIIIIIIIIIIIIIIIIIIIIIIIIIIII
AAAAAAAAAAAAAAAAAAAAAAAAAA11111IIIIIIIIIIIIIIIIIIIIIIIIIIIIIIIII
AAAAAAAAAAAAAAAAAAAAAAAAAAA11111IIIIIIIIIIIIIIIIIIIIIIIIIIIIIIII
AAAAAAAAAAAAAAAAAAAAAAAAAAAA11111IIIIIIIIIIIIIIIIIIIIIIIIIIIIIII
AAAAAAAAAAAAAAAAAAAAAAAAAAAAA11111IIIIIIIIIIIIIIIIIIIIIIIIIIIIII
AAAAAAAAAAAAAAAAAAAAAAAAAAAAAA11111IIIIIIIIIIIIIIIIIIIIIIIIIIIII
AAAAAAAAAAAAAAAAAAAAAAAAAAAAAAA11111IIIIIIIIIIIIIIIIIIIIIIIIIIII
AAAAAAAAAAAAAAAAAAAAAAAAAAAAAAAA11111IIIIIIIIIIIIIIIIIIIIIIIIIII
AAAAAAAAAAAAAAAAAAAAAAAAAAAAAAAAA11111IIIIIIIIIIIIIIIIIIIIIIIIII
AAAAAAAAAAAAAAAAAAAAAAAAAAAAAAAAAA11111IIIIIIIIIIIIIIIIIIIIIIIII
AAAAAAAAAAAAAAAAAAAAAAAAAAAAAAAAAAA11111IIIIIIIIIIIIIIIIIIIIIIII
AAAAAAAAAAAAAAAAAAAAAAAAAAAAAAAAAAAA11111IIIIIIIIIIIIIIIIIIIIIII
AAAAAAAAAAAAAAAAAAAAAAAAAAAAAAAAAAAAA11111IIIIIIIIIIIIIIIIIIIIII
AAAAAAAAAAAAAAAAAAAAAAAAAAAAAAAAAAAAAA11111IIIIIIIIIIIIIIIIIIIII
AAAAAAAAAAAAAAAAAAAAAAAAAAAAAAAAAAAAAAA11111IIIIIIIIIIIIIIIIIIII
AAAAAAAAAAAAAAAAAAAAAAAAAAAAAAAAAAAAAAAA11111IIIIIIIIIIIIIIIIIII
AAAAAAAAAAAAAAAAAAAAAAAAAAAAAAAAAAAAAAAAA11111IIIIIIIIIIIIIIIIII
AAAAAAAAAAAAAAAAAAAAAAAAAAAAAAAAAAAAAAAAAA11111IIIIIIIIIIIIIIIII
AAAAAAAAAAAAAAAAAAAAAAAAAAAAAAAAAAAAAAAAAAA11111IIIIIIIIIIIIIIII
AAAAAAAAAAAAAAAAAAAAAAAAAAAAAAAAAAAAAAAAAAAA11111IIIIIIIIIIIIIII
AAAAAAAAAAAAAAAAAAAAAAAAAAAAAAAAAAAAAAAAAAAAA11111IIIIIIIIIIIIII
AAAAAAAAAAAAAAAAAAAAAAAAAAAAAAAAAAAAAAAAAAAAAA11111IIIIIIIIIIIII
AAAAAAAAAAAAAAAAAAAAAAAAAAAAAAAAAAAAAAAAAAAAAAA11111IIIIIIIIIIII
AAAAAAAAAAAAAAAAAAAAAAAAAAAAAAAAAAAAAAAAAAAAAAAA11111IIIIIIIIIII
AAAAAAAAAAAAAAAAAAAAAAAAAAAAAAAAAAAAAAAAAAAAAAAAA11111IIIIIIIIII
AAAAAAAAAAAAAAAAAAAAAAAAAAAAAAAAAAAAAAAAAAAAAAAAAA11111IIIIIIIII
AAAAAAAAAAAAAAAAAAAAAAAAAAAAAAAAAAAAAAAAAAAAAAAAAAA11111IIIIIIII
AAAAAAAAAAAAAAAAAAAAAAAAAAAAAAAAAAAAAAAAAAAAAAAAAAAA11111IIIIIII
AAAAAAAAAAAAAAAAAAAAAAAAAAAAAAAAAAAAAAAAAAAAAAAAAAAAA11111IIIIII
AAAAAAAAAAAAAAAAAAAAAAAAAAAAAAAAAAAAAAAAAAAAAAAAAAAAAA11111IIIII
AAAAAAAAAAAAAAAAAAAAAAAAAAAAAAAAAAAAAAAAAAAAAAAAAAAAAAA11111IIII
AAAAAAAAAAAAAAAAAAAAAAAAAAAAAAAAAAAAAAAAAAAAAAAAAAAAAAAA11111III
AAAAAAAAAAAAAAAAAAAAAAAAAAAAAAAAAAAAAAAAAAAAAAAAAAAAAAAAA11111II
AAAAAAAAAAAAAAAAAAAAAAAAAAAAAAAAAAAAAAAAAAAAAAAAAAAAAAAAAA11111I
AAAAAAAAAAAAAAAAAAAAAAAAAAAAAAAAAAAAAAAAAAAAAAAAAAAAAAAAAAA11111
AAAAAAAAAAAAAAAAAAAAAAAAAAAAAAAAAAAAAAAAAAAAAAAAAAAAAAAAAAAA1111
AAAAAAAAAAAAAAAAAAAAAAAAAAAAAAAAAAAAAAAAAAAAAAAAAAAAAAAAAAAAA111
AAAAAAAAAAAAAAAAAAAAAAAAAAAAAAAAAAAAAAAAAAAAAAAAAAAAAAAAAAAAAA11
AAAAAAAAAAAAAAAAAAAAAAAAAAAAAAAAAAAAAAAAAAAAAAAAAAAAAAAAAAAAAAA1
AAAAAAAAAAAAAAAAAAAAAAAAAAAAAAAAAAAAAAAAAAAAAAAAAAAAAAAAAAAAAAAA
[MLOP] Prefetch Degree Mean: 4.6167
[MLOP] Prefetch Degree SD: 3.07103
[MLOP] Max Score Left Mean (%): 45.7824
[MLOP] Max Score Left SD (%): 31.9011
[MLOP] Max Score Right Mean (%): 76.8274
[MLOP] Max Score Right SD (%): 18.4076

DRAM Statistics
 CHANNEL 0
 RQ ROW_BUFFER_HIT:    7669679  ROW_BUFFER_MISS:   23327782
 DBUS_CONGESTED:       1041
 WQ ROW_BUFFER_HIT:     296725  ROW_BUFFER_MISS:    2182351  FULL:          0

 AVG_CONGESTED_CYCLE: 5
 All warmup complete: 5
Channel 0 Bank busy for read cycles: 0
Channel 0 Bank busy for write cycles: 0
Channel 0
Rank 0
0banks busy for read cycles: 914226
0banks busy for write cycles: 1069
1banks busy for read cycles: 44260953
1banks busy for write cycles: 665612
2banks busy for read cycles: 78805181
2banks busy for write cycles: 602253
3banks busy for read cycles: 107012232
3banks busy for write cycles: 583517
4banks busy for read cycles: 126724839
4banks busy for write cycles: 586025
5banks busy for read cycles: 134540279
5banks busy for write cycles: 652986
6banks busy for read cycles: 129073162
6banks busy for write cycles: 1614272
7banks busy for read cycles: 111904207
7banks busy for write cycles: 10873667
8banks busy for read cycles: 86543525
8banks busy for write cycles: 56206577

CPU 0 Branch Prediction Accuracy: 99.4426% MPKI: 1.34652 Average ROB Occupancy at Mispredict: 208.427
Branch types
NOT_BRANCH: 142884887 71.4424%
BRANCH_DIRECT_JUMP: 1760954 0.880477%
BRANCH_INDIRECT: 8204 0.004102%
BRANCH_CONDITIONAL: 49955196 24.9776%
BRANCH_DIRECT_CALL: 1820937 0.910468%
BRANCH_INDIRECT_CALL: 874577 0.437288%
BRANCH_RETURN: 2695516 1.34776%
BRANCH_OTHER: 0 0%


CPU 1 Branch Prediction Accuracy: 99.8711% MPKI: 0.0272336 Average ROB Occupancy at Mispredict: 240.626
Branch types
NOT_BRANCH: 570711556 97.8873%
BRANCH_DIRECT_JUMP: 394028 0.0675829%
BRANCH_INDIRECT: 191322 0.0328152%
BRANCH_CONDITIONAL: 8708959 1.49374%
BRANCH_DIRECT_CALL: 1511670 0.259279%
BRANCH_INDIRECT_CALL: 0 0%
BRANCH_RETURN: 1511670 0.259279%
BRANCH_OTHER: 0 0%


CPU 2 Branch Prediction Accuracy: 99.8482% MPKI: 0.00176439 Average ROB Occupancy at Mispredict: 70.0335
Branch types
NOT_BRANCH: 1425368509 99.8814%
BRANCH_DIRECT_JUMP: 423711 0.0296912%
BRANCH_INDIRECT: 421158 0.0295123%
BRANCH_CONDITIONAL: 847422 0.0593823%
BRANCH_DIRECT_CALL: 0 0%
BRANCH_INDIRECT_CALL: 0 0%
BRANCH_RETURN: 0 0%
BRANCH_OTHER: 0 0%


CPU 3 Branch Prediction Accuracy: 99.9215% MPKI: 0.174404 Average ROB Occupancy at Mispredict: 94.0225
Branch types
NOT_BRANCH: 314984294 76.1312%
BRANCH_DIRECT_JUMP: 10205078 2.46655%
BRANCH_INDIRECT: 0 0%
BRANCH_CONDITIONAL: 78301193 18.9253%
BRANCH_DIRECT_CALL: 5124109 1.23849%
BRANCH_INDIRECT_CALL: 48 1.16015e-05%
BRANCH_RETURN: 5124157 1.2385%
BRANCH_OTHER: 0 0%

DRAM PAGES: 1048576
Allocated PAGES: 194634
