
*** ChampSim Multicore Out-of-Order Simulator ***

Warmup Instructions: 50000000
Simulation Instructions: 200000000
Number of CPUs: 4
LLC sets: 8192
LLC ways: 16
Off-chip DRAM Size: 4096 MB Channels: 1 Width: 64-bit Data Rate: 6400 MT/s
CPU 0 runs ./traces/spec/433.milc-127B.champsimtrace.xz
.xz
CPU 1 runs ./traces/spec/433.milc-127B.champsimtrace.xz
.xz
CPU 2 runs ./traces/spec/433.milc-127B.champsimtrace.xz
.xz
CPU 3 runs ./traces/spec/433.milc-127B.champsimtrace.xz
.xz
BTB has LRU replacement policy
ITLB has LRU replacement policy
DTLB has LRU replacement policy
STLB has LRU replacement policy
L1I has LRU replacement policy
L1D has LRU replacement policy
Initialize SRRIP state for L2C
Initialize DRRIP state for LLC
BTB has LRU replacement policy
ITLB has LRU replacement policy
DTLB has LRU replacement policy
STLB has LRU replacement policy
L1I has LRU replacement policy
L1D has LRU replacement policy
Initialize SRRIP state for L2C
Initialize DRRIP state for LLC
BTB has LRU replacement policy
ITLB has LRU replacement policy
DTLB has LRU replacement policy
STLB has LRU replacement policy
L1I has LRU replacement policy
L1D has LRU replacement policy
Initialize SRRIP state for L2C
Initialize DRRIP state for LLC
BTB has LRU replacement policy
ITLB has LRU replacement policy
DTLB has LRU replacement policy
STLB has LRU replacement policy
L1I has LRU replacement policy
L1D has LRU replacement policy
Initialize SRRIP state for L2C
Initialize DRRIP state for LLC
Heartbeat CPU 0 instructions: 10000001 cycles: 2707189 heartbeat IPC: 3.69387 cumulative IPC: 3.69387 (Simulation time: 0 hr 2 min 36 sec) 
Heartbeat CPU 1 instructions: 10000001 cycles: 2707213 heartbeat IPC: 3.69384 cumulative IPC: 3.69384 (Simulation time: 0 hr 2 min 36 sec) 
Heartbeat CPU 2 instructions: 10000001 cycles: 2707242 heartbeat IPC: 3.6938 cumulative IPC: 3.6938 (Simulation time: 0 hr 2 min 36 sec) 
Heartbeat CPU 3 instructions: 10000001 cycles: 2707262 heartbeat IPC: 3.69377 cumulative IPC: 3.69377 (Simulation time: 0 hr 2 min 36 sec) 
Heartbeat CPU 0 instructions: 20000002 cycles: 5581146 heartbeat IPC: 3.47952 cumulative IPC: 3.58349 (Simulation time: 0 hr 5 min 21 sec) 
Heartbeat CPU 1 instructions: 20000002 cycles: 5581174 heartbeat IPC: 3.47952 cumulative IPC: 3.58348 (Simulation time: 0 hr 5 min 21 sec) 
Heartbeat CPU 3 instructions: 20000002 cycles: 5581207 heartbeat IPC: 3.47954 cumulative IPC: 3.58345 (Simulation time: 0 hr 5 min 21 sec) 
Heartbeat CPU 2 instructions: 20000002 cycles: 5581220 heartbeat IPC: 3.4795 cumulative IPC: 3.58345 (Simulation time: 0 hr 5 min 21 sec) 
Heartbeat CPU 2 instructions: 30000000 cycles: 8885658 heartbeat IPC: 3.02623 cumulative IPC: 3.37623 (Simulation time: 0 hr 8 min 28 sec) 
Heartbeat CPU 0 instructions: 30000000 cycles: 8885782 heartbeat IPC: 3.02605 cumulative IPC: 3.37618 (Simulation time: 0 hr 8 min 28 sec) 
Heartbeat CPU 3 instructions: 30000000 cycles: 8886095 heartbeat IPC: 3.02582 cumulative IPC: 3.37606 (Simulation time: 0 hr 8 min 28 sec) 
Heartbeat CPU 1 instructions: 30000000 cycles: 8886383 heartbeat IPC: 3.02553 cumulative IPC: 3.37595 (Simulation time: 0 hr 8 min 28 sec) 
Heartbeat CPU 0 instructions: 40000003 cycles: 11677701 heartbeat IPC: 3.58177 cumulative IPC: 3.42533 (Simulation time: 0 hr 11 min 24 sec) 
Heartbeat CPU 2 instructions: 40000003 cycles: 11677708 heartbeat IPC: 3.5816 cumulative IPC: 3.42533 (Simulation time: 0 hr 11 min 24 sec) 
Heartbeat CPU 3 instructions: 40000003 cycles: 11678236 heartbeat IPC: 3.58148 cumulative IPC: 3.42518 (Simulation time: 0 hr 11 min 24 sec) 
Heartbeat CPU 1 instructions: 40000003 cycles: 11678309 heartbeat IPC: 3.58176 cumulative IPC: 3.42515 (Simulation time: 0 hr 11 min 24 sec) 
Heartbeat CPU 0 instructions: 50000002 cycles: 14469519 heartbeat IPC: 3.5819 cumulative IPC: 3.45554 (Simulation time: 0 hr 14 min 12 sec) 
Heartbeat CPU 2 instructions: 50000002 cycles: 14470023 heartbeat IPC: 3.58126 cumulative IPC: 3.45542 (Simulation time: 0 hr 14 min 12 sec) 
Heartbeat CPU 3 instructions: 50000002 cycles: 14470114 heartbeat IPC: 3.58182 cumulative IPC: 3.4554 (Simulation time: 0 hr 14 min 12 sec) 
Heartbeat CPU 1 instructions: 50000002 cycles: 14470271 heartbeat IPC: 3.58171 cumulative IPC: 3.45536 (Simulation time: 0 hr 14 min 12 sec) 

Warmup complete CPU 0 instructions: 50002613 cycles: 14470271 (Simulation time: 0 hr 14 min 12 sec) 
Warmup complete CPU 1 instructions: 50000002 cycles: 14470271 (Simulation time: 0 hr 14 min 12 sec) 
Warmup complete CPU 2 instructions: 50000790 cycles: 14470270 (Simulation time: 0 hr 14 min 12 sec) 
Warmup complete CPU 3 instructions: 50000558 cycles: 14470270 (Simulation time: 0 hr 14 min 12 sec) 

Heartbeat CPU 3 instructions: 60000003 cycles: 43604319 heartbeat IPC: 0.343239 cumulative IPC: 0.343222 (Simulation time: 0 hr 18 min 59 sec) 
Heartbeat CPU 1 instructions: 60000003 cycles: 43667465 heartbeat IPC: 0.342499 cumulative IPC: 0.342499 (Simulation time: 0 hr 19 min 0 sec) 
Heartbeat CPU 2 instructions: 60000003 cycles: 43748813 heartbeat IPC: 0.341544 cumulative IPC: 0.34152 (Simulation time: 0 hr 19 min 0 sec) 
Heartbeat CPU 0 instructions: 60000003 cycles: 44109545 heartbeat IPC: 0.337382 cumulative IPC: 0.337302 (Simulation time: 0 hr 19 min 4 sec) 
Heartbeat CPU 1 instructions: 70000001 cycles: 73294339 heartbeat IPC: 0.337531 cumulative IPC: 0.339997 (Simulation time: 0 hr 24 min 4 sec) 
Heartbeat CPU 3 instructions: 70000002 cycles: 73304294 heartbeat IPC: 0.336701 cumulative IPC: 0.33993 (Simulation time: 0 hr 24 min 4 sec) 
Heartbeat CPU 2 instructions: 70000000 cycles: 73313909 heartbeat IPC: 0.338237 cumulative IPC: 0.33987 (Simulation time: 0 hr 24 min 4 sec) 
Heartbeat CPU 0 instructions: 70000001 cycles: 73878900 heartbeat IPC: 0.335916 cumulative IPC: 0.336607 (Simulation time: 0 hr 24 min 10 sec) 
Heartbeat CPU 2 instructions: 80000003 cycles: 102604693 heartbeat IPC: 0.341404 cumulative IPC: 0.34038 (Simulation time: 0 hr 28 min 59 sec) 
Heartbeat CPU 3 instructions: 80000003 cycles: 102605870 heartbeat IPC: 0.341279 cumulative IPC: 0.340378 (Simulation time: 0 hr 28 min 59 sec) 
Heartbeat CPU 1 instructions: 80000003 cycles: 102860161 heartbeat IPC: 0.338228 cumulative IPC: 0.339405 (Simulation time: 0 hr 29 min 1 sec) 
Heartbeat CPU 0 instructions: 80000003 cycles: 103154347 heartbeat IPC: 0.341583 cumulative IPC: 0.33825 (Simulation time: 0 hr 29 min 4 sec) 
Heartbeat CPU 2 instructions: 90000001 cycles: 132191774 heartbeat IPC: 0.337985 cumulative IPC: 0.339778 (Simulation time: 0 hr 33 min 53 sec) 
Heartbeat CPU 1 instructions: 90000001 cycles: 132267448 heartbeat IPC: 0.340052 cumulative IPC: 0.339567 (Simulation time: 0 hr 33 min 54 sec) 
Heartbeat CPU 3 instructions: 90000003 cycles: 132399352 heartbeat IPC: 0.335644 cumulative IPC: 0.339182 (Simulation time: 0 hr 33 min 55 sec) 
Heartbeat CPU 0 instructions: 90000001 cycles: 133058450 heartbeat IPC: 0.334402 cumulative IPC: 0.33728 (Simulation time: 0 hr 34 min 1 sec) 
Heartbeat CPU 2 instructions: 100000001 cycles: 163589784 heartbeat IPC: 0.318492 cumulative IPC: 0.335296 (Simulation time: 0 hr 39 min 5 sec) 
Heartbeat CPU 1 instructions: 100000003 cycles: 163667384 heartbeat IPC: 0.318472 cumulative IPC: 0.335127 (Simulation time: 0 hr 39 min 6 sec) 
Heartbeat CPU 3 instructions: 100000001 cycles: 164434211 heartbeat IPC: 0.31216 cumulative IPC: 0.33341 (Simulation time: 0 hr 39 min 14 sec) 
Heartbeat CPU 0 instructions: 100000001 cycles: 165421285 heartbeat IPC: 0.308996 cumulative IPC: 0.331216 (Simulation time: 0 hr 39 min 23 sec) 
Heartbeat CPU 2 instructions: 110000000 cycles: 204784180 heartbeat IPC: 0.242751 cumulative IPC: 0.315264 (Simulation time: 0 hr 44 min 54 sec) 
Heartbeat CPU 3 instructions: 110000000 cycles: 204810925 heartbeat IPC: 0.247667 cumulative IPC: 0.315221 (Simulation time: 0 hr 44 min 54 sec) 
Heartbeat CPU 1 instructions: 110000000 cycles: 204900978 heartbeat IPC: 0.242521 cumulative IPC: 0.315075 (Simulation time: 0 hr 44 min 55 sec) 
Heartbeat CPU 0 instructions: 110000000 cycles: 205859111 heartbeat IPC: 0.247293 cumulative IPC: 0.313484 (Simulation time: 0 hr 45 min 3 sec) 
Heartbeat CPU 3 instructions: 120000000 cycles: 246550246 heartbeat IPC: 0.239582 cumulative IPC: 0.301618 (Simulation time: 0 hr 50 min 34 sec) 
Heartbeat CPU 2 instructions: 120000000 cycles: 246666916 heartbeat IPC: 0.238762 cumulative IPC: 0.301465 (Simulation time: 0 hr 50 min 35 sec) 
Heartbeat CPU 1 instructions: 120000000 cycles: 246920814 heartbeat IPC: 0.237983 cumulative IPC: 0.301139 (Simulation time: 0 hr 50 min 37 sec) 
Heartbeat CPU 0 instructions: 120000000 cycles: 247989651 heartbeat IPC: 0.237358 cumulative IPC: 0.29975 (Simulation time: 0 hr 50 min 46 sec) 
Heartbeat CPU 2 instructions: 130000002 cycles: 285969561 heartbeat IPC: 0.254436 cumulative IPC: 0.294657 (Simulation time: 0 hr 56 min 18 sec) 
Heartbeat CPU 3 instructions: 130000002 cycles: 286045880 heartbeat IPC: 0.253193 cumulative IPC: 0.294575 (Simulation time: 0 hr 56 min 19 sec) 
Heartbeat CPU 1 instructions: 130000002 cycles: 286546750 heartbeat IPC: 0.25236 cumulative IPC: 0.294035 (Simulation time: 0 hr 56 min 22 sec) 
Heartbeat CPU 0 instructions: 130000002 cycles: 287972135 heartbeat IPC: 0.25011 cumulative IPC: 0.292493 (Simulation time: 0 hr 56 min 34 sec) 
Heartbeat CPU 2 instructions: 140000001 cycles: 329302471 heartbeat IPC: 0.230771 cumulative IPC: 0.285864 (Simulation time: 1 hr 1 min 54 sec) 
Heartbeat CPU 3 instructions: 140000001 cycles: 329355493 heartbeat IPC: 0.230896 cumulative IPC: 0.285817 (Simulation time: 1 hr 1 min 55 sec) 
Heartbeat CPU 1 instructions: 140000001 cycles: 329857850 heartbeat IPC: 0.230888 cumulative IPC: 0.285363 (Simulation time: 1 hr 1 min 58 sec) 
Heartbeat CPU 0 instructions: 140000001 cycles: 331219247 heartbeat IPC: 0.231229 cumulative IPC: 0.284128 (Simulation time: 1 hr 2 min 8 sec) 
Heartbeat CPU 3 instructions: 150000000 cycles: 371802957 heartbeat IPC: 0.235585 cumulative IPC: 0.27985 (Simulation time: 1 hr 7 min 23 sec) 
Heartbeat CPU 2 instructions: 150000002 cycles: 371841559 heartbeat IPC: 0.235078 cumulative IPC: 0.279819 (Simulation time: 1 hr 7 min 23 sec) 
Heartbeat CPU 1 instructions: 150000000 cycles: 373173689 heartbeat IPC: 0.230862 cumulative IPC: 0.278782 (Simulation time: 1 hr 7 min 34 sec) 
Heartbeat CPU 0 instructions: 150000002 cycles: 374467931 heartbeat IPC: 0.231221 cumulative IPC: 0.277772 (Simulation time: 1 hr 7 min 44 sec) 
Heartbeat CPU 3 instructions: 160000000 cycles: 406637765 heartbeat IPC: 0.287069 cumulative IPC: 0.280491 (Simulation time: 1 hr 12 min 23 sec) 
Heartbeat CPU 2 instructions: 160000002 cycles: 406646040 heartbeat IPC: 0.287319 cumulative IPC: 0.280484 (Simulation time: 1 hr 12 min 23 sec) 
Heartbeat CPU 1 instructions: 160000000 cycles: 407915406 heartbeat IPC: 0.287838 cumulative IPC: 0.279582 (Simulation time: 1 hr 12 min 34 sec) 
Heartbeat CPU 0 instructions: 160000000 cycles: 409456332 heartbeat IPC: 0.285809 cumulative IPC: 0.278484 (Simulation time: 1 hr 12 min 49 sec) 
Heartbeat CPU 3 instructions: 170000002 cycles: 438907182 heartbeat IPC: 0.309891 cumulative IPC: 0.282726 (Simulation time: 1 hr 17 min 14 sec) 
Heartbeat CPU 2 instructions: 170000002 cycles: 439204277 heartbeat IPC: 0.307142 cumulative IPC: 0.282528 (Simulation time: 1 hr 17 min 16 sec) 
Heartbeat CPU 1 instructions: 170000002 cycles: 440168164 heartbeat IPC: 0.310051 cumulative IPC: 0.28189 (Simulation time: 1 hr 17 min 24 sec) 
Heartbeat CPU 0 instructions: 170000002 cycles: 441677030 heartbeat IPC: 0.31036 cumulative IPC: 0.280888 (Simulation time: 1 hr 17 min 36 sec) 
Heartbeat CPU 3 instructions: 180000000 cycles: 471105995 heartbeat IPC: 0.31057 cumulative IPC: 0.28469 (Simulation time: 1 hr 21 min 59 sec) 
Heartbeat CPU 2 instructions: 180000000 cycles: 472487325 heartbeat IPC: 0.300453 cumulative IPC: 0.28383 (Simulation time: 1 hr 22 min 13 sec) 
Heartbeat CPU 1 instructions: 180000000 cycles: 472524544 heartbeat IPC: 0.309058 cumulative IPC: 0.283809 (Simulation time: 1 hr 22 min 13 sec) 
Heartbeat CPU 0 instructions: 180000000 cycles: 473774796 heartbeat IPC: 0.311548 cumulative IPC: 0.283031 (Simulation time: 1 hr 22 min 25 sec) 
Heartbeat CPU 3 instructions: 190000001 cycles: 503288839 heartbeat IPC: 0.310725 cumulative IPC: 0.286404 (Simulation time: 1 hr 27 min 1 sec) 
Heartbeat CPU 1 instructions: 190000001 cycles: 504709834 heartbeat IPC: 0.310701 cumulative IPC: 0.285575 (Simulation time: 1 hr 27 min 14 sec) 
Heartbeat CPU 2 instructions: 190000001 cycles: 505573592 heartbeat IPC: 0.30224 cumulative IPC: 0.285071 (Simulation time: 1 hr 27 min 23 sec) 
Heartbeat CPU 0 instructions: 190000001 cycles: 506087742 heartbeat IPC: 0.309474 cumulative IPC: 0.284769 (Simulation time: 1 hr 27 min 28 sec) 
Heartbeat CPU 3 instructions: 200000002 cycles: 535913918 heartbeat IPC: 0.306513 cumulative IPC: 0.287662 (Simulation time: 1 hr 32 min 10 sec) 
Heartbeat CPU 1 instructions: 200000002 cycles: 536712705 heartbeat IPC: 0.312472 cumulative IPC: 0.287223 (Simulation time: 1 hr 32 min 17 sec) 
Heartbeat CPU 2 instructions: 200000002 cycles: 537803583 heartbeat IPC: 0.31027 cumulative IPC: 0.286623 (Simulation time: 1 hr 32 min 26 sec) 
Heartbeat CPU 0 instructions: 200000002 cycles: 539181360 heartbeat IPC: 0.302173 cumulative IPC: 0.285867 (Simulation time: 1 hr 32 min 38 sec) 
Heartbeat CPU 3 instructions: 210000003 cycles: 567504495 heartbeat IPC: 0.31655 cumulative IPC: 0.289312 (Simulation time: 1 hr 37 min 6 sec) 
Heartbeat CPU 1 instructions: 210000003 cycles: 569410096 heartbeat IPC: 0.305835 cumulative IPC: 0.28832 (Simulation time: 1 hr 37 min 22 sec) 
Heartbeat CPU 2 instructions: 210000003 cycles: 570361524 heartbeat IPC: 0.307145 cumulative IPC: 0.287825 (Simulation time: 1 hr 37 min 29 sec) 
Heartbeat CPU 0 instructions: 210000003 cycles: 572000313 heartbeat IPC: 0.304702 cumulative IPC: 0.286975 (Simulation time: 1 hr 37 min 43 sec) 
Heartbeat CPU 3 instructions: 220000000 cycles: 598873829 heartbeat IPC: 0.318783 cumulative IPC: 0.290894 (Simulation time: 1 hr 41 min 56 sec) 
Heartbeat CPU 1 instructions: 220000000 cycles: 601704659 heartbeat IPC: 0.30965 cumulative IPC: 0.289493 (Simulation time: 1 hr 42 min 24 sec) 
Heartbeat CPU 2 instructions: 220000000 cycles: 603086470 heartbeat IPC: 0.305577 cumulative IPC: 0.288812 (Simulation time: 1 hr 42 min 37 sec) 
Heartbeat CPU 0 instructions: 220000000 cycles: 605125384 heartbeat IPC: 0.301886 cumulative IPC: 0.287812 (Simulation time: 1 hr 43 min 2 sec) 
Heartbeat CPU 3 instructions: 230000000 cycles: 654299503 heartbeat IPC: 0.180422 cumulative IPC: 0.281324 (Simulation time: 1 hr 51 min 6 sec) 
Heartbeat CPU 1 instructions: 230000000 cycles: 657057779 heartbeat IPC: 0.180658 cumulative IPC: 0.280117 (Simulation time: 1 hr 51 min 26 sec) 
Heartbeat CPU 2 instructions: 230000000 cycles: 658331700 heartbeat IPC: 0.181011 cumulative IPC: 0.279562 (Simulation time: 1 hr 51 min 36 sec) 
Heartbeat CPU 0 instructions: 230000000 cycles: 659164572 heartbeat IPC: 0.185051 cumulative IPC: 0.279198 (Simulation time: 1 hr 51 min 43 sec) 
Heartbeat CPU 3 instructions: 240000000 cycles: 700240680 heartbeat IPC: 0.21767 cumulative IPC: 0.27706 (Simulation time: 1 hr 56 min 39 sec) 
Heartbeat CPU 1 instructions: 240000003 cycles: 703128643 heartbeat IPC: 0.217057 cumulative IPC: 0.275899 (Simulation time: 1 hr 56 min 58 sec) 
Heartbeat CPU 2 instructions: 240000000 cycles: 704186109 heartbeat IPC: 0.218082 cumulative IPC: 0.275475 (Simulation time: 1 hr 57 min 5 sec) 
Heartbeat CPU 0 instructions: 240000003 cycles: 705191709 heartbeat IPC: 0.217263 cumulative IPC: 0.275071 (Simulation time: 1 hr 57 min 11 sec) 
Heartbeat CPU 3 instructions: 250000000 cycles: 751292154 heartbeat IPC: 0.195881 cumulative IPC: 0.271435 (Simulation time: 2 hr 3 min 22 sec) 
Finished CPU 3 instructions: 200000000 cycles: 736826406 cumulative IPC: 0.271434 (Simulation time: 2 hr 3 min 22 sec) 
Heartbeat CPU 1 instructions: 250000003 cycles: 757533482 heartbeat IPC: 0.183807 cumulative IPC: 0.269156 (Simulation time: 2 hr 4 min 12 sec) 
Finished CPU 1 instructions: 200000001 cycles: 743063211 cumulative IPC: 0.269156 (Simulation time: 2 hr 4 min 12 sec) 
Heartbeat CPU 2 instructions: 250000002 cycles: 759387926 heartbeat IPC: 0.181153 cumulative IPC: 0.268485 (Simulation time: 2 hr 4 min 30 sec) 
Finished CPU 2 instructions: 200000003 cycles: 744926937 cumulative IPC: 0.268483 (Simulation time: 2 hr 4 min 30 sec) 
Heartbeat CPU 0 instructions: 250000003 cycles: 761972373 heartbeat IPC: 0.176116 cumulative IPC: 0.267554 (Simulation time: 2 hr 4 min 57 sec) 
Finished CPU 0 instructions: 200000001 cycles: 747521866 cumulative IPC: 0.267551 (Simulation time: 2 hr 4 min 57 sec) 

ChampSim completed all CPUs

Total Simulation Statistics (not including warmup)

CPU 0 cumulative IPC: 0.267551 instructions: 200000001 cycles: 747521866
ITLB TOTAL     ACCESS:   33190911  HIT:   33190908  MISS:          3  HIT %:        100  MISS %: 9.03862e-06   MPKI: 1.5e-05
ITLB LOAD      ACCESS:          0  HIT:          0  MISS:          0  HIT %:       -nan  MISS %:       -nan   MPKI: 0
ITLB RFO       ACCESS:          0  HIT:          0  MISS:          0  HIT %:       -nan  MISS %:       -nan   MPKI: 0
ITLB PREFETCH  ACCESS:          0  HIT:          0  MISS:          0  HIT %:       -nan  MISS %:       -nan   MPKI: 0
ITLB WRITEBACK ACCESS:          0  HIT:          0  MISS:          0  HIT %:       -nan  MISS %:       -nan   MPKI: 0
DTLB TOTAL     ACCESS:   29947580  HIT:   29549356  MISS:     398224  HIT %:    98.6703  MISS %:    1.32974   MPKI: 1.99112
DTLB LOAD      ACCESS:          0  HIT:          0  MISS:          0  HIT %:       -nan  MISS %:       -nan   MPKI: 0
DTLB RFO       ACCESS:          0  HIT:          0  MISS:          0  HIT %:       -nan  MISS %:       -nan   MPKI: 0
DTLB PREFETCH  ACCESS:          0  HIT:          0  MISS:          0  HIT %:       -nan  MISS %:       -nan   MPKI: 0
DTLB WRITEBACK ACCESS:          0  HIT:          0  MISS:          0  HIT %:       -nan  MISS %:       -nan   MPKI: 0
STLB TOTAL     ACCESS:    2259840  HIT:    1861742  MISS:     398098  HIT %:    82.3838  MISS %:    17.6162   MPKI: 1.99049
STLB LOAD      ACCESS:          0  HIT:          0  MISS:          0  HIT %:       -nan  MISS %:       -nan   MPKI: 0
STLB RFO       ACCESS:          0  HIT:          0  MISS:          0  HIT %:       -nan  MISS %:       -nan   MPKI: 0
STLB PREFETCH  ACCESS:          0  HIT:          0  MISS:          0  HIT %:       -nan  MISS %:       -nan   MPKI: 0
STLB WRITEBACK ACCESS:          0  HIT:          0  MISS:          0  HIT %:       -nan  MISS %:       -nan   MPKI: 0
L1D TOTAL     ACCESS:   42232538  HIT:   36849118  MISS:    5383420  HIT %:    87.2529  MISS %:    12.7471   MPKI: 26.9171
L1D LOAD      ACCESS:   18819028  HIT:   16673547  MISS:    2145481  HIT %:    88.5994  MISS %:    11.4006   MPKI: 10.7274
L1D RFO       ACCESS:   20808831  HIT:   20175571  MISS:     633260  HIT %:    96.9568  MISS %:    3.04323   MPKI: 3.1663
L1D PREFETCH  ACCESS:    2604679  HIT:          0  MISS:    2604679  HIT %:          0  MISS %:        100   MPKI: 13.0234
L1D WRITEBACK ACCESS:          0  HIT:          0  MISS:          0  HIT %:       -nan  MISS %:       -nan   MPKI: 0
L1I TOTAL     ACCESS:   40509271  HIT:   40509223  MISS:         48  HIT %:    99.9999  MISS %: 0.000118491   MPKI: 0.00024
L1I LOAD      ACCESS:   40509271  HIT:   40509223  MISS:         48  HIT %:    99.9999  MISS %: 0.000118491   MPKI: 0.00024
L1I RFO       ACCESS:          0  HIT:          0  MISS:          0  HIT %:       -nan  MISS %:       -nan   MPKI: 0
L1I PREFETCH  ACCESS:          0  HIT:          0  MISS:          0  HIT %:       -nan  MISS %:       -nan   MPKI: 0
L1I WRITEBACK ACCESS:          0  HIT:          0  MISS:          0  HIT %:       -nan  MISS %:       -nan   MPKI: 0
L2C TOTAL     ACCESS:    7894576  HIT:    1975962  MISS:    5918614  HIT %:    25.0294  MISS %:    74.9706   MPKI: 29.5931
L2C LOAD      ACCESS:    1688806  HIT:     276033  MISS:    1412773  HIT %:    16.3449  MISS %:    83.6551   MPKI: 7.06386
L2C RFO       ACCESS:     633260  HIT:         20  MISS:     633240  HIT %: 0.00315826  MISS %:    99.9968   MPKI: 3.1662
L2C PREFETCH  ACCESS:    3900776  HIT:     269067  MISS:    3631709  HIT %:    6.89778  MISS %:    93.1022   MPKI: 18.1585
L2C WRITEBACK ACCESS:    1272798  HIT:    1082516  MISS:     190282  HIT %:    85.0501  MISS %:    14.9499   MPKI: 0.95141
PSCL5 TOTAL     ACCESS:     398098  HIT:     398098  MISS:          0  HIT %:        100  MISS %:          0   MPKI: 0
PSCL5 LOAD      ACCESS:          0  HIT:          0  MISS:          0  HIT %:       -nan  MISS %:       -nan   MPKI: 0
PSCL5 RFO       ACCESS:          0  HIT:          0  MISS:          0  HIT %:       -nan  MISS %:       -nan   MPKI: 0
PSCL5 PREFETCH  ACCESS:          0  HIT:          0  MISS:          0  HIT %:       -nan  MISS %:       -nan   MPKI: 0
PSCL5 WRITEBACK ACCESS:          0  HIT:          0  MISS:          0  HIT %:       -nan  MISS %:       -nan   MPKI: 0
PSCL4 TOTAL     ACCESS:     398098  HIT:     398098  MISS:          0  HIT %:        100  MISS %:          0   MPKI: 0
PSCL4 LOAD      ACCESS:          0  HIT:          0  MISS:          0  HIT %:       -nan  MISS %:       -nan   MPKI: 0
PSCL4 RFO       ACCESS:          0  HIT:          0  MISS:          0  HIT %:       -nan  MISS %:       -nan   MPKI: 0
PSCL4 PREFETCH  ACCESS:          0  HIT:          0  MISS:          0  HIT %:       -nan  MISS %:       -nan   MPKI: 0
PSCL4 WRITEBACK ACCESS:          0  HIT:          0  MISS:          0  HIT %:       -nan  MISS %:       -nan   MPKI: 0
PSCL3 TOTAL     ACCESS:     398098  HIT:     398098  MISS:          0  HIT %:        100  MISS %:          0   MPKI: 0
PSCL3 LOAD      ACCESS:          0  HIT:          0  MISS:          0  HIT %:       -nan  MISS %:       -nan   MPKI: 0
PSCL3 RFO       ACCESS:          0  HIT:          0  MISS:          0  HIT %:       -nan  MISS %:       -nan   MPKI: 0
PSCL3 PREFETCH  ACCESS:          0  HIT:          0  MISS:          0  HIT %:       -nan  MISS %:       -nan   MPKI: 0
PSCL3 WRITEBACK ACCESS:          0  HIT:          0  MISS:          0  HIT %:       -nan  MISS %:       -nan   MPKI: 0
PSCL2 TOTAL     ACCESS:     398098  HIT:     397246  MISS:        852  HIT %:     99.786  MISS %:   0.214018   MPKI: 0.00426
PSCL2 LOAD      ACCESS:          0  HIT:          0  MISS:          0  HIT %:       -nan  MISS %:       -nan   MPKI: 0
PSCL2 RFO       ACCESS:          0  HIT:          0  MISS:          0  HIT %:       -nan  MISS %:       -nan   MPKI: 0
PSCL2 PREFETCH  ACCESS:          0  HIT:          0  MISS:          0  HIT %:       -nan  MISS %:       -nan   MPKI: 0
PSCL2 WRITEBACK ACCESS:          0  HIT:          0  MISS:          0  HIT %:       -nan  MISS %:       -nan   MPKI: 0
=== CPU 0 L1D Prefetcher Statistics ===
[MLOP] History of tracked zone:
IIIIIIIIIIIIIIIIIIIIIIIIIIIIIIIIIIIIIIIIIIIIIIIIIIIIIIIIIIIIIIII
IIIIIIIIA1IIIIIIIIIIIIIIIIIIIIIIIIIIIIII12IIIIIIIIIIIIIIIIIIIIII
IIIIIIIIAA1IIIIIIIIIIIIIIIIIIIIIIIIIIIII112IIIIIIIIIIIIIIIIIIIII
IIIIIIIIAAA1IIIIIIIIIIIIIIIIIIIIIIIIIIII1112IIIIIIIIIIIIIIIIIIII
IIIIIIIIAAA1IIIIIIIIIIIIIIIIIIIIIIIIIIIIA112IIIIIIIIIIIIIIIIIIII
IIIIIIIIAAA1IIIIIIIIIIIIIIIIIIIIIIIIIIIIAA12IIIIIIIIIIIIIIIIIIII
IIIIIIIIAAA1IIIIIIIIIIIIIIIIIIIIIIIIIIIIAAA1IIIIIIIIIIIIIIIIIIII
AII2IIIIIIIIIIIIIIIIIIIIIIIIIIII2IIIIIIIIIIIIIIIIIIIIIIIIIIIIIII
AII2IIIIIIIIIIIAII2IIIIIIIIIIIII2IIIIIIIIIIIIII2IIIIIIIIIIIIIIII
AII2IIIIIIIIIIAAI22IIIIIIIIIIIII2IIIIIIIIIIIII22IIIIIIIIIIIIIIII
AII2IIIIIIIIIIAAI22IIIIIIIIIIIIIAII2IIIIIIIIII22IIIIIIIIIIIIIIII
AII2IIIIIIIIIIAAI22IIIIIIIIIIIIIAII2IIIIIIIIII2AII2IIIIIIIIIIIII
AII2IIIIIIIIIIAAI22IIIIIIIIIIIIIAII2IIIIIIIIIIAAI22IIIIIIIIIIIII
IIIIIIA1IIIIIIIIIIIIIIIIIIIIIIIIIIIIII12IIIIIIIIIIIIIIIIIIIIIIII
IIIIIIAA1IIIIIIIIIIIIIIIIIIIIIIIIIIIII112IIIIIIIIIIIIIIIIIIIIIII
IIIIIIAAA1IIIIIIIIIIIIIIIIIIIIIIIIIIII1112IIIIIIIIIIIIIIIIIIIIII
IIIIIIAAA1IIIIIIIIIIIIIIIIIIIIIIIIIIIIA112IIIIIIIIIIIIIIIIIIIIII
IIIIIIAAA1IIIIIIIIIIIIIIIIIIIIIIIIIIIIAA12IIIIIIIIIIIIIIIIIIIIII
IIIIIIAAA1IIIIIIIIIIIIIIIIIIIIIIIIIIIIAAA1IIIIIIIIIIIIIIIIIIIIII
IIA1IIIIIIIIIIIIIIIIIIIIIIIIIIIIII2IIIIIIIIIIIIIIIIIIIIIIIIIIIII
IIAA1IIIIIIIIIIIIIIIIIIIIIIIIIIIII22IIIIIIIIIIIIIIIIIIIIIIIIIIII
IIAA1IIIIIIIIIIIIIIIIIIIIIIIIIIIIIA1IIIIIIIIIIIIIIIIIIIIIIIIIIII
IIAAA1IIIIIIIIIIIIIIIIIIIIIIIIIIIIA12IIIIIIIIIIIIIIIIIIIIIIIIIII
IIAAA1IIIIIIIIIIIIIIIIIIIIIIIIIIIIAA1IIIIIIIIIIIIIIIIIIIIIIIIIII
IIAAA1IIIIIIIIIIIIIIIIIIIIIIIIIIIIAAA1IIIIIIIIIIIIIIIIIIIIIIIIII
AII22IIIIIIIIIIIIIIIIIIIIIIIIIII1IIIIIIIIIIIIIIIIIIIIIIIIIIIIIII
AII22IIIIIIIAII22IIIIIIIIIIIIIII1IIIIIIIIIII1IIIIIIIIIIIIIIIIIII
AII22IIIIIIAAI222IIIIIIIIIIIIIII1IIIIIIIIII11IIIIIIIIIIIIIIIIIII
AII22IIIIIIAAI222IIIIIIIIIIIIIII1IIIIIIIIIIA1I22IIIIIIIIIIIIIIII
AII22IIIIIIAAI222IIIIIIIIIIIIIIIAII22IIIIIIA1I22IIIIIIIIIIIIIIII
AII22IIIIIIAAI222IIIIIIIIIIIIIIIAII22IIIIIIAAI222IIIIIIIIIIIIIII
IIIIIIIIA1IIIIIIIIIIIIIIIIIIIIIIIIIIIIII1IIIIIIIIIIIIIIIIIIIIIII
IIIIIIIIAA1IIIIIIIIIIIIIIIIIIIIIIIIIIIII11IIIIIIIIIIIIIIIIIIIIII
IIIIIIIIAAA1IIIIIIIIIIIIIIIIIIIIIIIIIIII111IIIIIIIIIIIIIIIIIIIII
IIIIIIIIAAA1IIIIIIIIIIIIIIIIIIIIIIIIIIII1A1IIIIIIIIIIIIIIIIIIIII
IIIIIIIIAAA1IIIIIIIIIIIIIIIIIIIIIIIIIIIIAA1IIIIIIIIIIIIIIIIIIIII
IIIIIIIIAAA1IIIIIIIIIIIIIIIIIIIIIIIIIIIIAAA1IIIIIIIIIIIIIIIIIIII
[MLOP] Prefetch Degree Mean: 2.72747
[MLOP] Prefetch Degree SD: 1.91047
[MLOP] Max Score Left Mean (%): 14.408
[MLOP] Max Score Left SD (%): 21.1558
[MLOP] Max Score Right Mean (%): 69.0673
[MLOP] Max Score Right SD (%): 10.5492
LLC TOTAL     ACCESS:    6997465  HIT:     436602  MISS:    6560863  HIT %:    6.23943  MISS %:    93.7606   MPKI: 32.8043
LLC LOAD      ACCESS:    1284660  HIT:       1346  MISS:    1283314  HIT %:   0.104775  MISS %:    99.8952   MPKI: 6.41657
LLC RFO       ACCESS:     633240  HIT:        610  MISS:     632630  HIT %:    0.09633  MISS %:    99.9037   MPKI: 3.16315
LLC PREFETCH  ACCESS:    3759822  HIT:       9147  MISS:    3750675  HIT %:   0.243283  MISS %:    99.7567   MPKI: 18.7534
LLC WRITEBACK ACCESS:    1269133  HIT:     425132  MISS:     844001  HIT %:    33.4978  MISS %:    66.5022   MPKI: 4.22

RAW hits: 2349086
Loads Generated: 63784320
Loads sent to L1D: 61435232
Stores Generated: 24499372
Stores sent to L1D: 24499377

CPU 1 cumulative IPC: 0.26817 instructions: 200463134 cycles: 747521866
ITLB TOTAL     ACCESS:   33268894  HIT:   33268891  MISS:          3  HIT %:        100  MISS %: 9.01743e-06   MPKI: 1.49653e-05
ITLB LOAD      ACCESS:          0  HIT:          0  MISS:          0  HIT %:       -nan  MISS %:       -nan   MPKI: 0
ITLB RFO       ACCESS:          0  HIT:          0  MISS:          0  HIT %:       -nan  MISS %:       -nan   MPKI: 0
ITLB PREFETCH  ACCESS:          0  HIT:          0  MISS:          0  HIT %:       -nan  MISS %:       -nan   MPKI: 0
ITLB WRITEBACK ACCESS:          0  HIT:          0  MISS:          0  HIT %:       -nan  MISS %:       -nan   MPKI: 0
DTLB TOTAL     ACCESS:   30079749  HIT:   29680906  MISS:     398843  HIT %:     98.674  MISS %:    1.32595   MPKI: 1.98961
DTLB LOAD      ACCESS:          0  HIT:          0  MISS:          0  HIT %:       -nan  MISS %:       -nan   MPKI: 0
DTLB RFO       ACCESS:          0  HIT:          0  MISS:          0  HIT %:       -nan  MISS %:       -nan   MPKI: 0
DTLB PREFETCH  ACCESS:          0  HIT:          0  MISS:          0  HIT %:       -nan  MISS %:       -nan   MPKI: 0
DTLB WRITEBACK ACCESS:          0  HIT:          0  MISS:          0  HIT %:       -nan  MISS %:       -nan   MPKI: 0
STLB TOTAL     ACCESS:    2263366  HIT:    1864648  MISS:     398718  HIT %:    82.3838  MISS %:    17.6162   MPKI: 1.98898
STLB LOAD      ACCESS:          0  HIT:          0  MISS:          0  HIT %:       -nan  MISS %:       -nan   MPKI: 0
STLB RFO       ACCESS:          0  HIT:          0  MISS:          0  HIT %:       -nan  MISS %:       -nan   MPKI: 0
STLB PREFETCH  ACCESS:          0  HIT:          0  MISS:          0  HIT %:       -nan  MISS %:       -nan   MPKI: 0
STLB WRITEBACK ACCESS:          0  HIT:          0  MISS:          0  HIT %:       -nan  MISS %:       -nan   MPKI: 0
L1D TOTAL     ACCESS:   42386609  HIT:   36949045  MISS:    5437564  HIT %:    87.1715  MISS %:    12.8285   MPKI: 27.125
L1D LOAD      ACCESS:   18917427  HIT:   16765545  MISS:    2151882  HIT %:    88.6249  MISS %:    11.3751   MPKI: 10.7346
L1D RFO       ACCESS:   20834940  HIT:   20183499  MISS:     651441  HIT %:    96.8733  MISS %:    3.12668   MPKI: 3.24968
L1D PREFETCH  ACCESS:    2634242  HIT:          1  MISS:    2634241  HIT %: 3.79616e-05  MISS %:        100   MPKI: 13.1408
L1D WRITEBACK ACCESS:          0  HIT:          0  MISS:          0  HIT %:       -nan  MISS %:       -nan   MPKI: 0
L1I TOTAL     ACCESS:   40607359  HIT:   40607311  MISS:         48  HIT %:    99.9999  MISS %: 0.000118205   MPKI: 0.000239446
L1I LOAD      ACCESS:   40607359  HIT:   40607311  MISS:         48  HIT %:    99.9999  MISS %: 0.000118205   MPKI: 0.000239446
L1I RFO       ACCESS:          0  HIT:          0  MISS:          0  HIT %:       -nan  MISS %:       -nan   MPKI: 0
L1I PREFETCH  ACCESS:          0  HIT:          0  MISS:          0  HIT %:       -nan  MISS %:       -nan   MPKI: 0
L1I WRITEBACK ACCESS:          0  HIT:          0  MISS:          0  HIT %:       -nan  MISS %:       -nan   MPKI: 0
L2C TOTAL     ACCESS:    7945173  HIT:    1930825  MISS:    6014348  HIT %:    24.3019  MISS %:    75.6981   MPKI: 30.0023
L2C LOAD      ACCESS:    1690833  HIT:     278947  MISS:    1411886  HIT %:    16.4976  MISS %:    83.5024   MPKI: 7.04312
L2C RFO       ACCESS:     651441  HIT:          0  MISS:     651441  HIT %:          0  MISS %:        100   MPKI: 3.24968
L2C PREFETCH  ACCESS:    3912355  HIT:     263162  MISS:    3649193  HIT %:    6.72643  MISS %:    93.2736   MPKI: 18.2038
L2C WRITEBACK ACCESS:    1290988  HIT:    1039819  MISS:     251169  HIT %:    80.5444  MISS %:    19.4556   MPKI: 1.25294
PSCL5 TOTAL     ACCESS:     398718  HIT:     398718  MISS:          0  HIT %:        100  MISS %:          0   MPKI: 0
PSCL5 LOAD      ACCESS:          0  HIT:          0  MISS:          0  HIT %:       -nan  MISS %:       -nan   MPKI: 0
PSCL5 RFO       ACCESS:          0  HIT:          0  MISS:          0  HIT %:       -nan  MISS %:       -nan   MPKI: 0
PSCL5 PREFETCH  ACCESS:          0  HIT:          0  MISS:          0  HIT %:       -nan  MISS %:       -nan   MPKI: 0
PSCL5 WRITEBACK ACCESS:          0  HIT:          0  MISS:          0  HIT %:       -nan  MISS %:       -nan   MPKI: 0
PSCL4 TOTAL     ACCESS:     398718  HIT:     398718  MISS:          0  HIT %:        100  MISS %:          0   MPKI: 0
PSCL4 LOAD      ACCESS:          0  HIT:          0  MISS:          0  HIT %:       -nan  MISS %:       -nan   MPKI: 0
PSCL4 RFO       ACCESS:          0  HIT:          0  MISS:          0  HIT %:       -nan  MISS %:       -nan   MPKI: 0
PSCL4 PREFETCH  ACCESS:          0  HIT:          0  MISS:          0  HIT %:       -nan  MISS %:       -nan   MPKI: 0
PSCL4 WRITEBACK ACCESS:          0  HIT:          0  MISS:          0  HIT %:       -nan  MISS %:       -nan   MPKI: 0
PSCL3 TOTAL     ACCESS:     398718  HIT:     398718  MISS:          0  HIT %:        100  MISS %:          0   MPKI: 0
PSCL3 LOAD      ACCESS:          0  HIT:          0  MISS:          0  HIT %:       -nan  MISS %:       -nan   MPKI: 0
PSCL3 RFO       ACCESS:          0  HIT:          0  MISS:          0  HIT %:       -nan  MISS %:       -nan   MPKI: 0
PSCL3 PREFETCH  ACCESS:          0  HIT:          0  MISS:          0  HIT %:       -nan  MISS %:       -nan   MPKI: 0
PSCL3 WRITEBACK ACCESS:          0  HIT:          0  MISS:          0  HIT %:       -nan  MISS %:       -nan   MPKI: 0
PSCL2 TOTAL     ACCESS:     398718  HIT:     397866  MISS:        852  HIT %:    99.7863  MISS %:   0.213685   MPKI: 0.00425016
PSCL2 LOAD      ACCESS:          0  HIT:          0  MISS:          0  HIT %:       -nan  MISS %:       -nan   MPKI: 0
PSCL2 RFO       ACCESS:          0  HIT:          0  MISS:          0  HIT %:       -nan  MISS %:       -nan   MPKI: 0
PSCL2 PREFETCH  ACCESS:          0  HIT:          0  MISS:          0  HIT %:       -nan  MISS %:       -nan   MPKI: 0
PSCL2 WRITEBACK ACCESS:          0  HIT:          0  MISS:          0  HIT %:       -nan  MISS %:       -nan   MPKI: 0
=== CPU 1 L1D Prefetcher Statistics ===
[MLOP] History of tracked zone:
IIIIIIIIIIIIIIIIIIIIIIIIIIIIIIIIIIIIIIIIIIIIIIIIIIIIIIIIIIIIIIII
IIIIIIIIA1IIIIIIIIIIIIIIIIIIIIIIIIIIIIII12IIIIIIIIIIIIIIIIIIIIII
IIIIIIIIAA1IIIIIIIIIIIIIIIIIIIIIIIIIIIII112IIIIIIIIIIIIIIIIIIIII
IIIIIIIIAAA1IIIIIIIIIIIIIIIIIIIIIIIIIIII1112IIIIIIIIIIIIIIIIIIII
IIIIIIIIAAA1IIIIIIIIIIIIIIIIIIIIIIIIIIIIA112IIIIIIIIIIIIIIIIIIII
IIIIIIIIAAA1IIIIIIIIIIIIIIIIIIIIIIIIIIIIAA12IIIIIIIIIIIIIIIIIIII
IIIIIIIIAAA1IIIIIIIIIIIIIIIIIIIIIIIIIIIIAAA1IIIIIIIIIIIIIIIIIIII
AIIIIIIIIIIIIIIIIIIIIIIIIIIIIIII1IIIIIIIIIIIIIIIIIIIIIIIIIIIIIII
AIIIIIIIIIIIIIIAIIIIIIIIIIIIIIII1IIIIIIIIIIIIII1IIIIIIIIIIIIIIII
AIIIIIIIIIIIIIAAIIIIIIIIIIIIIIII1IIIIIIIIIIIII11IIIIIIIIIIIIIIII
AIIIIIIIIIIIIIAAIIIIIIIIIIIIIIIIAIIIIIIIIIIIII11IIIIIIIIIIIIIIII
AIIIIIIIIIIIIIAAIIIIIIIIIIIIIIIIAIIIIIIIIIIIII1AIIIIIIIIIIIIIIII
AIIIIIIIIIIIIIAAIIIIIIIIIIIIIIIIAIIIIIIIIIIIIIAAIIIIIIIIIIIIIIII
IIIIIIA1IIIIIIIIIIIIIIIIIIIIIIIIIIIIII2IIIIIIIIIIIIIIIIIIIIIIIII
IIIIIIAA1IIIIIIIIIIIIIIIIIIIIIIIIIIIII22IIIIIIIIIIIIIIIIIIIIIIII
IIIIIIAAA1IIIIIIIIIIIIIIIIIIIIIIIIIIII222IIIIIIIIIIIIIIIIIIIIIII
IIIIIIAAA1IIIIIIIIIIIIIIIIIIIIIIIIIIIIA12IIIIIIIIIIIIIIIIIIIIIII
IIIIIIAAA1IIIIIIIIIIIIIIIIIIIIIIIIIIIIAA1IIIIIIIIIIIIIIIIIIIIIII
IIIIIIAAA1IIIIIIIIIIIIIIIIIIIIIIIIIIIIAAA1IIIIIIIIIIIIIIIIIIIIII
IIA1IIIIIIIIIIIIIIIIIIIIIIIIIIIIII2IIIIIIIIIIIIIIIIIIIIIIIIIIIII
IIAA1IIIIIIIIIIIIIIIIIIIIIIIIIIIII22IIIIIIIIIIIIIIIIIIIIIIIIIIII
IIAA1IIIIIIIIIIIIIIIIIIIIIIIIIIIIIA1IIIIIIIIIIIIIIIIIIIIIIIIIIII
IIAAA1IIIIIIIIIIIIIIIIIIIIIIIIIIIIA12IIIIIIIIIIIIIIIIIIIIIIIIIII
IIAAA1IIIIIIIIIIIIIIIIIIIIIIIIIIIIAA1IIIIIIIIIIIIIIIIIIIIIIIIIII
IIAAA1IIIIIIIIIIIIIIIIIIIIIIIIIIIIAAA1IIIIIIIIIIIIIIIIIIIIIIIIII
AIIIIIIIIIIIIIIIIIIIIIIIIIIIIIII1IIIIIIIIIIIIIIIIIIIIIIIIIIIIIII
AIIIIIIIIIIIAIIIIIIIIIIIIIIIIIII1IIIIIIIIIII1IIIIIIIIIIIIIIIIIII
AIIIIIIIIIIAAIIIIIIIIIIIIIIIIIII1IIIIIIIIII11IIIIIIIIIIIIIIIIIII
AIIIIIIIIIIAAIIIIIIIIIIIIIIIIIII1IIIIIIIIIIA1IIIIIIIIIIIIIIIIIII
AIIIIIIIIIIAAIIIIIIIIIIIIIIIIIIIAIIIIIIIIIIA1IIIIIIIIIIIIIIIIIII
AIIIIIIIIIIAAIIIIIIIIIIIIIIIIIIIAIIIIIIIIIIAAIIIIIIIIIIIIIIIIIII
IIIIIIIIA11IIIIIIIIIIIIIIIIIIIIIIIIIIIII2IIIIIIIIIIIIIIIIIIIIIII
IIIIIIIIAA11IIIIIIIIIIIIIIIIIIIIIIIIIIII22IIIIIIIIIIIIIIIIIIIIII
IIIIIIIIAAA11IIIIIIIIIIIIIIIIIIIIIIIIIII222IIIIIIIIIIIIIIIIIIIII
IIIIIIIIAAA11IIIIIIIIIIIIIIIIIIIIIIIIIII2A11IIIIIIIIIIIIIIIIIIII
IIIIIIIIAAA11IIIIIIIIIIIIIIIIIIIIIIIIIIIAA11IIIIIIIIIIIIIIIIIIII
IIIIIIIIAAA11IIIIIIIIIIIIIIIIIIIIIIIIIIIAAA11IIIIIIIIIIIIIIIIIII
[MLOP] Prefetch Degree Mean: 2.76494
[MLOP] Prefetch Degree SD: 1.98902
[MLOP] Max Score Left Mean (%): 14.9208
[MLOP] Max Score Left SD (%): 21.6032
[MLOP] Max Score Right Mean (%): 69.2563
[MLOP] Max Score Right SD (%): 10.6592
LLC TOTAL     ACCESS:    7050523  HIT:     895765  MISS:    6154758  HIT %:    12.7049  MISS %:    87.2951   MPKI: 30.7027
LLC LOAD      ACCESS:    1285377  HIT:       2718  MISS:    1282659  HIT %:   0.211455  MISS %:    99.7885   MPKI: 6.39848
LLC RFO       ACCESS:     651441  HIT:        163  MISS:     651278  HIT %:  0.0250215  MISS %:     99.975   MPKI: 3.24887
LLC PREFETCH  ACCESS:    3775702  HIT:       7665  MISS:    3768037  HIT %:   0.203009  MISS %:     99.797   MPKI: 18.7967
LLC WRITEBACK ACCESS:    1287344  HIT:     884774  MISS:     402570  HIT %:    68.7286  MISS %:    31.2714   MPKI: 2.0082

RAW hits: 2350148
Loads Generated: 64003320
Loads sent to L1D: 61653188
Stores Generated: 24645208
Stores sent to L1D: 24645214

CPU 2 cumulative IPC: 0.267926 instructions: 200280579 cycles: 747521867
ITLB TOTAL     ACCESS:   33262315  HIT:   33262312  MISS:          3  HIT %:        100  MISS %: 9.01922e-06   MPKI: 1.4979e-05
ITLB LOAD      ACCESS:          0  HIT:          0  MISS:          0  HIT %:       -nan  MISS %:       -nan   MPKI: 0
ITLB RFO       ACCESS:          0  HIT:          0  MISS:          0  HIT %:       -nan  MISS %:       -nan   MPKI: 0
ITLB PREFETCH  ACCESS:          0  HIT:          0  MISS:          0  HIT %:       -nan  MISS %:       -nan   MPKI: 0
ITLB WRITEBACK ACCESS:          0  HIT:          0  MISS:          0  HIT %:       -nan  MISS %:       -nan   MPKI: 0
DTLB TOTAL     ACCESS:   30029708  HIT:   29631109  MISS:     398599  HIT %:    98.6727  MISS %:    1.32735   MPKI: 1.9902
DTLB LOAD      ACCESS:          0  HIT:          0  MISS:          0  HIT %:       -nan  MISS %:       -nan   MPKI: 0
DTLB RFO       ACCESS:          0  HIT:          0  MISS:          0  HIT %:       -nan  MISS %:       -nan   MPKI: 0
DTLB PREFETCH  ACCESS:          0  HIT:          0  MISS:          0  HIT %:       -nan  MISS %:       -nan   MPKI: 0
DTLB WRITEBACK ACCESS:          0  HIT:          0  MISS:          0  HIT %:       -nan  MISS %:       -nan   MPKI: 0
STLB TOTAL     ACCESS:    2261942  HIT:    1863466  MISS:     398476  HIT %:    82.3835  MISS %:    17.6165   MPKI: 1.98959
STLB LOAD      ACCESS:          0  HIT:          0  MISS:          0  HIT %:       -nan  MISS %:       -nan   MPKI: 0
STLB RFO       ACCESS:          0  HIT:          0  MISS:          0  HIT %:       -nan  MISS %:       -nan   MPKI: 0
STLB PREFETCH  ACCESS:          0  HIT:          0  MISS:          0  HIT %:       -nan  MISS %:       -nan   MPKI: 0
STLB WRITEBACK ACCESS:          0  HIT:          0  MISS:          0  HIT %:       -nan  MISS %:       -nan   MPKI: 0
L1D TOTAL     ACCESS:   42334475  HIT:   36916732  MISS:    5417743  HIT %:    87.2025  MISS %:    12.7975   MPKI: 27.0508
L1D LOAD      ACCESS:   18883026  HIT:   16737304  MISS:    2145722  HIT %:    88.6368  MISS %:    11.3632   MPKI: 10.7136
L1D RFO       ACCESS:   20823692  HIT:   20179427  MISS:     644265  HIT %:    96.9061  MISS %:     3.0939   MPKI: 3.21681
L1D PREFETCH  ACCESS:    2627757  HIT:          1  MISS:    2627756  HIT %: 3.80553e-05  MISS %:        100   MPKI: 13.1204
L1D WRITEBACK ACCESS:          0  HIT:          0  MISS:          0  HIT %:       -nan  MISS %:       -nan   MPKI: 0
L1I TOTAL     ACCESS:   40598109  HIT:   40598061  MISS:         48  HIT %:    99.9999  MISS %: 0.000118232   MPKI: 0.000239664
L1I LOAD      ACCESS:   40598109  HIT:   40598061  MISS:         48  HIT %:    99.9999  MISS %: 0.000118232   MPKI: 0.000239664
L1I RFO       ACCESS:          0  HIT:          0  MISS:          0  HIT %:       -nan  MISS %:       -nan   MPKI: 0
L1I PREFETCH  ACCESS:          0  HIT:          0  MISS:          0  HIT %:       -nan  MISS %:       -nan   MPKI: 0
L1I WRITEBACK ACCESS:          0  HIT:          0  MISS:          0  HIT %:       -nan  MISS %:       -nan   MPKI: 0
L2C TOTAL     ACCESS:    7921823  HIT:    1943366  MISS:    5978457  HIT %:    24.5318  MISS %:    75.4682   MPKI: 29.8504
L2C LOAD      ACCESS:    1686713  HIT:     268994  MISS:    1417719  HIT %:    15.9478  MISS %:    84.0522   MPKI: 7.07866
L2C RFO       ACCESS:     644265  HIT:         25  MISS:     644240  HIT %: 0.00388039  MISS %:    99.9961   MPKI: 3.21669
L2C PREFETCH  ACCESS:    3907718  HIT:     271782  MISS:    3635936  HIT %:    6.95501  MISS %:     93.045   MPKI: 18.1542
L2C WRITEBACK ACCESS:    1283812  HIT:    1053858  MISS:     229954  HIT %:    82.0882  MISS %:    17.9118   MPKI: 1.14816
PSCL5 TOTAL     ACCESS:     398476  HIT:     398476  MISS:          0  HIT %:        100  MISS %:          0   MPKI: 0
PSCL5 LOAD      ACCESS:          0  HIT:          0  MISS:          0  HIT %:       -nan  MISS %:       -nan   MPKI: 0
PSCL5 RFO       ACCESS:          0  HIT:          0  MISS:          0  HIT %:       -nan  MISS %:       -nan   MPKI: 0
PSCL5 PREFETCH  ACCESS:          0  HIT:          0  MISS:          0  HIT %:       -nan  MISS %:       -nan   MPKI: 0
PSCL5 WRITEBACK ACCESS:          0  HIT:          0  MISS:          0  HIT %:       -nan  MISS %:       -nan   MPKI: 0
PSCL4 TOTAL     ACCESS:     398476  HIT:     398476  MISS:          0  HIT %:        100  MISS %:          0   MPKI: 0
PSCL4 LOAD      ACCESS:          0  HIT:          0  MISS:          0  HIT %:       -nan  MISS %:       -nan   MPKI: 0
PSCL4 RFO       ACCESS:          0  HIT:          0  MISS:          0  HIT %:       -nan  MISS %:       -nan   MPKI: 0
PSCL4 PREFETCH  ACCESS:          0  HIT:          0  MISS:          0  HIT %:       -nan  MISS %:       -nan   MPKI: 0
PSCL4 WRITEBACK ACCESS:          0  HIT:          0  MISS:          0  HIT %:       -nan  MISS %:       -nan   MPKI: 0
PSCL3 TOTAL     ACCESS:     398476  HIT:     398476  MISS:          0  HIT %:        100  MISS %:          0   MPKI: 0
PSCL3 LOAD      ACCESS:          0  HIT:          0  MISS:          0  HIT %:       -nan  MISS %:       -nan   MPKI: 0
PSCL3 RFO       ACCESS:          0  HIT:          0  MISS:          0  HIT %:       -nan  MISS %:       -nan   MPKI: 0
PSCL3 PREFETCH  ACCESS:          0  HIT:          0  MISS:          0  HIT %:       -nan  MISS %:       -nan   MPKI: 0
PSCL3 WRITEBACK ACCESS:          0  HIT:          0  MISS:          0  HIT %:       -nan  MISS %:       -nan   MPKI: 0
PSCL2 TOTAL     ACCESS:     398476  HIT:     397623  MISS:        853  HIT %:    99.7859  MISS %:   0.214066   MPKI: 0.00425903
PSCL2 LOAD      ACCESS:          0  HIT:          0  MISS:          0  HIT %:       -nan  MISS %:       -nan   MPKI: 0
PSCL2 RFO       ACCESS:          0  HIT:          0  MISS:          0  HIT %:       -nan  MISS %:       -nan   MPKI: 0
PSCL2 PREFETCH  ACCESS:          0  HIT:          0  MISS:          0  HIT %:       -nan  MISS %:       -nan   MPKI: 0
PSCL2 WRITEBACK ACCESS:          0  HIT:          0  MISS:          0  HIT %:       -nan  MISS %:       -nan   MPKI: 0
=== CPU 2 L1D Prefetcher Statistics ===
[MLOP] History of tracked zone:
IIIIIIIIIIIIIIIIIIIIIIIIIIIIIIIIIIIIIIIIIIIIIIIIIIIIIIIIIIIIIIII
IIIIIIIIA1IIIIIIIIIIIIIIIIIIIIIIIIIIIIII12IIIIIIIIIIIIIIIIIIIIII
IIIIIIIIAA1IIIIIIIIIIIIIIIIIIIIIIIIIIIII112IIIIIIIIIIIIIIIIIIIII
IIIIIIIIAAA1IIIIIIIIIIIIIIIIIIIIIIIIIIII1112IIIIIIIIIIIIIIIIIIII
IIIIIIIIAAA1IIIIIIIIIIIIIIIIIIIIIIIIIIIIA112IIIIIIIIIIIIIIIIIIII
IIIIIIIIAAA1IIIIIIIIIIIIIIIIIIIIIIIIIIIIAA12IIIIIIIIIIIIIIIIIIII
IIIIIIIIAAA1IIIIIIIIIIIIIIIIIIIIIIIIIIIIAAA1IIIIIIIIIIIIIIIIIIII
AI11IIIIIIIIII1IIIIIIIIIIIIIIIIIIIIIIIIIIIIIIIIIIIIIIIIIIIIIIIII
AI11IIIIIIIIII1AI11IIIIIIIIII1IIIIIIIIIIIIIIIIIIIIIIIIIIIIIIIIII
AI11IIIIIIIIIIAA111IIIIIIIII11IIIIIIIIIIIIIIIIIIIIIIIIIIIIIIIIII
AI11IIIIIIIIIIAA111IIIIIIIII11IIAI11IIIIIIIIII1IIIIIIIIIIIIIIIII
AI11IIIIIIIIIIAA111IIIIIIIII11IIAI11IIIIIIIIII1AI11IIIIIIIIII1II
AI11IIIIIIIIIIAA111IIIIIIIII11IIAI11IIIIIIIIIIAA111IIIIIIIII11II
IIIIIIA1IIIIIIIIIIIIIIIIIIIIIIIIIIIIII2IIIIIIIIIIIIIIIIIIIIIIIII
IIIIIIAA1IIIIIIIIIIIIIIIIIIIIIIIIIIIII22IIIIIIIIIIIIIIIIIIIIIIII
IIIIIIAAA1IIIIIIIIIIIIIIIIIIIIIIIIIIII222IIIIIIIIIIIIIIIIIIIIIII
IIIIIIAAA1IIIIIIIIIIIIIIIIIIIIIIIIIIIIA12IIIIIIIIIIIIIIIIIIIIIII
IIIIIIAAA1IIIIIIIIIIIIIIIIIIIIIIIIIIIIAA1IIIIIIIIIIIIIIIIIIIIIII
IIIIIIAAA1IIIIIIIIIIIIIIIIIIIIIIIIIIIIAAA1IIIIIIIIIIIIIIIIIIIIII
IIA1IIIIIIIIIIIIIIIIIIIIIIIIIIIIII2IIIIIIIIIIIIIIIIIIIIIIIIIIIII
IIAA1IIIIIIIIIIIIIIIIIIIIIIIIIIIII22IIIIIIIIIIIIIIIIIIIIIIIIIIII
IIAA1IIIIIIIIIIIIIIIIIIIIIIIIIIIIIA1IIIIIIIIIIIIIIIIIIIIIIIIIIII
IIAAA1IIIIIIIIIIIIIIIIIIIIIIIIIIIIA12IIIIIIIIIIIIIIIIIIIIIIIIIII
IIAAA1IIIIIIIIIIIIIIIIIIIIIIIIIIIIAA1IIIIIIIIIIIIIIIIIIIIIIIIIII
IIAAA1IIIIIIIIIIIIIIIIIIIIIIIIIIIIAAA1IIIIIIIIIIIIIIIIIIIIIIIIII
AIIIIIIIIIIIIIIIIIIIIIIIIIIIIIII1IIIIIIIIIIIIIIIIIIIIIIIIIIIIIII
AIIIIIIIIIIIAIIIIIIIIIIIIIIIIIII1IIIIIIIIIII1IIIIIIIIIIIIIIIIIII
AIIIIIIIIIIAAIIIIIIIIIIIIIIIIIII1IIIIIIIIII11IIIIIIIIIIIIIIIIIII
AIIIIIIIIIIAAIIIIIIIIIIIIIIIIIII1IIIIIIIIIIA1IIIIIIIIIIIIIIIIIII
AIIIIIIIIIIAAIIIIIIIIIIIIIIIIIIIAIIIIIIIIIIA1IIIIIIIIIIIIIIIIIII
AIIIIIIIIIIAAIIIIIIIIIIIIIIIIIIIAIIIIIIIIIIAAIIIIIIIIIIIIIIIIIII
IIIIIIIIA1IIIIIIIIIIIIIIIIIIIIIIIIIIIIII1IIIIIIIIIIIIIIIIIIIIIII
IIIIIIIIAA1IIIIIIIIIIIIIIIIIIIIIIIIIIIII11IIIIIIIIIIIIIIIIIIIIII
IIIIIIIIAAA1IIIIIIIIIIIIIIIIIIIIIIIIIIII111IIIIIIIIIIIIIIIIIIIII
IIIIIIIIAAA1IIIIIIIIIIIIIIIIIIIIIIIIIIII1A1IIIIIIIIIIIIIIIIIIIII
IIIIIIIIAAA1IIIIIIIIIIIIIIIIIIIIIIIIIIIIAA1IIIIIIIIIIIIIIIIIIIII
IIIIIIIIAAA1IIIIIIIIIIIIIIIIIIIIIIIIIIIIAAA1IIIIIIIIIIIIIIIIIIII
[MLOP] Prefetch Degree Mean: 2.75583
[MLOP] Prefetch Degree SD: 1.95377
[MLOP] Max Score Left Mean (%): 14.4812
[MLOP] Max Score Left SD (%): 21.2184
[MLOP] Max Score Right Mean (%): 69.1996
[MLOP] Max Score Right SD (%): 10.61
LLC TOTAL     ACCESS:    7028681  HIT:     113817  MISS:    6914864  HIT %:    1.61932  MISS %:    98.3807   MPKI: 34.5259
LLC LOAD      ACCESS:    1290018  HIT:       1001  MISS:    1289017  HIT %:  0.0775958  MISS %:    99.9224   MPKI: 6.43606
LLC RFO       ACCESS:     644240  HIT:        108  MISS:     644132  HIT %:  0.0167639  MISS %:    99.9832   MPKI: 3.21615
LLC PREFETCH  ACCESS:    3763637  HIT:       3242  MISS:    3760395  HIT %:  0.0861401  MISS %:    99.9139   MPKI: 18.7756
LLC WRITEBACK ACCESS:    1280178  HIT:     109385  MISS:    1170793  HIT %:    8.54451  MISS %:    91.4555   MPKI: 5.84576

RAW hits: 2349062
Loads Generated: 63917054
Loads sent to L1D: 61567992
Stores Generated: 24587699
Stores sent to L1D: 24587699

CPU 3 cumulative IPC: 0.270747 instructions: 202388972 cycles: 747521867
ITLB TOTAL     ACCESS:   33901886  HIT:   33901883  MISS:          3  HIT %:        100  MISS %: 8.84907e-06   MPKI: 1.48229e-05
ITLB LOAD      ACCESS:          0  HIT:          0  MISS:          0  HIT %:       -nan  MISS %:       -nan   MPKI: 0
ITLB RFO       ACCESS:          0  HIT:          0  MISS:          0  HIT %:       -nan  MISS %:       -nan   MPKI: 0
ITLB PREFETCH  ACCESS:          0  HIT:          0  MISS:          0  HIT %:       -nan  MISS %:       -nan   MPKI: 0
ITLB WRITEBACK ACCESS:          0  HIT:          0  MISS:          0  HIT %:       -nan  MISS %:       -nan   MPKI: 0
DTLB TOTAL     ACCESS:   30912212  HIT:   30512617  MISS:     399595  HIT %:    98.7073  MISS %:    1.29268   MPKI: 1.97439
DTLB LOAD      ACCESS:          0  HIT:          0  MISS:          0  HIT %:       -nan  MISS %:       -nan   MPKI: 0
DTLB RFO       ACCESS:          0  HIT:          0  MISS:          0  HIT %:       -nan  MISS %:       -nan   MPKI: 0
DTLB PREFETCH  ACCESS:          0  HIT:          0  MISS:          0  HIT %:       -nan  MISS %:       -nan   MPKI: 0
DTLB WRITEBACK ACCESS:          0  HIT:          0  MISS:          0  HIT %:       -nan  MISS %:       -nan   MPKI: 0
STLB TOTAL     ACCESS:    2280632  HIT:    1881258  MISS:     399374  HIT %:    82.4885  MISS %:    17.5115   MPKI: 1.9733
STLB LOAD      ACCESS:          0  HIT:          0  MISS:          0  HIT %:       -nan  MISS %:       -nan   MPKI: 0
STLB RFO       ACCESS:          0  HIT:          0  MISS:          0  HIT %:       -nan  MISS %:       -nan   MPKI: 0
STLB PREFETCH  ACCESS:          0  HIT:          0  MISS:          0  HIT %:       -nan  MISS %:       -nan   MPKI: 0
STLB WRITEBACK ACCESS:          0  HIT:          0  MISS:          0  HIT %:       -nan  MISS %:       -nan   MPKI: 0
L1D TOTAL     ACCESS:   43101161  HIT:   37629848  MISS:    5471313  HIT %:    87.3059  MISS %:    12.6941   MPKI: 27.0337
L1D LOAD      ACCESS:   19597451  HIT:   17436205  MISS:    2161246  HIT %:    88.9718  MISS %:    11.0282   MPKI: 10.6787
L1D RFO       ACCESS:   20873080  HIT:   20193643  MISS:     679437  HIT %:    96.7449  MISS %:    3.25509   MPKI: 3.35709
L1D PREFETCH  ACCESS:    2630630  HIT:          0  MISS:    2630630  HIT %:          0  MISS %:        100   MPKI: 12.9979
L1D WRITEBACK ACCESS:          0  HIT:          0  MISS:          0  HIT %:       -nan  MISS %:       -nan   MPKI: 0
L1I TOTAL     ACCESS:   41415982  HIT:   41415934  MISS:         48  HIT %:    99.9999  MISS %: 0.000115897   MPKI: 0.000237167
L1I LOAD      ACCESS:   41415982  HIT:   41415934  MISS:         48  HIT %:    99.9999  MISS %: 0.000115897   MPKI: 0.000237167
L1I RFO       ACCESS:          0  HIT:          0  MISS:          0  HIT %:       -nan  MISS %:       -nan   MPKI: 0
L1I PREFETCH  ACCESS:          0  HIT:          0  MISS:          0  HIT %:       -nan  MISS %:       -nan   MPKI: 0
L1I WRITEBACK ACCESS:          0  HIT:          0  MISS:          0  HIT %:       -nan  MISS %:       -nan   MPKI: 0
L2C TOTAL     ACCESS:    8045588  HIT:    2011805  MISS:    6033783  HIT %:    25.0051  MISS %:    74.9949   MPKI: 29.8128
L2C LOAD      ACCESS:    1696575  HIT:     283119  MISS:    1413456  HIT %:    16.6877  MISS %:    83.3123   MPKI: 6.98386
L2C RFO       ACCESS:     679437  HIT:         12  MISS:     679425  HIT %: 0.00176617  MISS %:    99.9982   MPKI: 3.35703
L2C PREFETCH  ACCESS:    3950551  HIT:     266936  MISS:    3683615  HIT %:    6.75693  MISS %:    93.2431   MPKI: 18.2007
L2C WRITEBACK ACCESS:    1318811  HIT:    1112219  MISS:     206592  HIT %:     84.335  MISS %:     15.665   MPKI: 1.02077
PSCL5 TOTAL     ACCESS:     399374  HIT:     399374  MISS:          0  HIT %:        100  MISS %:          0   MPKI: 0
PSCL5 LOAD      ACCESS:          0  HIT:          0  MISS:          0  HIT %:       -nan  MISS %:       -nan   MPKI: 0
PSCL5 RFO       ACCESS:          0  HIT:          0  MISS:          0  HIT %:       -nan  MISS %:       -nan   MPKI: 0
PSCL5 PREFETCH  ACCESS:          0  HIT:          0  MISS:          0  HIT %:       -nan  MISS %:       -nan   MPKI: 0
PSCL5 WRITEBACK ACCESS:          0  HIT:          0  MISS:          0  HIT %:       -nan  MISS %:       -nan   MPKI: 0
PSCL4 TOTAL     ACCESS:     399374  HIT:     399374  MISS:          0  HIT %:        100  MISS %:          0   MPKI: 0
PSCL4 LOAD      ACCESS:          0  HIT:          0  MISS:          0  HIT %:       -nan  MISS %:       -nan   MPKI: 0
PSCL4 RFO       ACCESS:          0  HIT:          0  MISS:          0  HIT %:       -nan  MISS %:       -nan   MPKI: 0
PSCL4 PREFETCH  ACCESS:          0  HIT:          0  MISS:          0  HIT %:       -nan  MISS %:       -nan   MPKI: 0
PSCL4 WRITEBACK ACCESS:          0  HIT:          0  MISS:          0  HIT %:       -nan  MISS %:       -nan   MPKI: 0
PSCL3 TOTAL     ACCESS:     399374  HIT:     399374  MISS:          0  HIT %:        100  MISS %:          0   MPKI: 0
PSCL3 LOAD      ACCESS:          0  HIT:          0  MISS:          0  HIT %:       -nan  MISS %:       -nan   MPKI: 0
PSCL3 RFO       ACCESS:          0  HIT:          0  MISS:          0  HIT %:       -nan  MISS %:       -nan   MPKI: 0
PSCL3 PREFETCH  ACCESS:          0  HIT:          0  MISS:          0  HIT %:       -nan  MISS %:       -nan   MPKI: 0
PSCL3 WRITEBACK ACCESS:          0  HIT:          0  MISS:          0  HIT %:       -nan  MISS %:       -nan   MPKI: 0
PSCL2 TOTAL     ACCESS:     399374  HIT:     398520  MISS:        854  HIT %:    99.7862  MISS %:   0.213835   MPKI: 0.0042196
PSCL2 LOAD      ACCESS:          0  HIT:          0  MISS:          0  HIT %:       -nan  MISS %:       -nan   MPKI: 0
PSCL2 RFO       ACCESS:          0  HIT:          0  MISS:          0  HIT %:       -nan  MISS %:       -nan   MPKI: 0
PSCL2 PREFETCH  ACCESS:          0  HIT:          0  MISS:          0  HIT %:       -nan  MISS %:       -nan   MPKI: 0
PSCL2 WRITEBACK ACCESS:          0  HIT:          0  MISS:          0  HIT %:       -nan  MISS %:       -nan   MPKI: 0
=== CPU 3 L1D Prefetcher Statistics ===
[MLOP] History of tracked zone:
IIIIIIIIIIIIIIIIIIIIIIIIIIIIIIIIIIIIIIIIIIIIIIIIIIIIIIIIIIIIIIII
IIIIIIIIA1IIIIIIIIIIIIIIIIIIIIIIIIIIIIII12IIIIIIIIIIIIIIIIIIIIII
IIIIIIIIAA1IIIIIIIIIIIIIIIIIIIIIIIIIIIII112IIIIIIIIIIIIIIIIIIIII
IIIIIIIIAAA1IIIIIIIIIIIIIIIIIIIIIIIIIIII1112IIIIIIIIIIIIIIIIIIII
IIIIIIIIAAA1IIIIIIIIIIIIIIIIIIIIIIIIIIIIA112IIIIIIIIIIIIIIIIIIII
IIIIIIIIAAA1IIIIIIIIIIIIIIIIIIIIIIIIIIIIAA12IIIIIIIIIIIIIIIIIIII
IIIIIIIIAAA1IIIIIIIIIIIIIIIIIIIIIIIIIIIIAAA1IIIIIIIIIIIIIIIIIIII
AII2IIIIIIIIIIIIIIIIIIIIIIIIIIII1IIIIIIIIIIIIIIIIIIIIIIIIIIIIIII
AII2IIIIIIIIIIIAII2IIIIIIIIIIIII1IIIIIIIIIIIIII1IIIIIIIIIIIIIIII
AII2IIIIIIIIIIAAI22IIIIIIIIIIIII1IIIIIIIIIIIII11IIIIIIIIIIIIIIII
AII2IIIIIIIIIIAAI22IIIIIIIIIIIIIAII2IIIIIIIIII11IIIIIIIIIIIIIIII
AII2IIIIIIIIIIAAI22IIIIIIIIIIIIIAII2IIIIIIIIII1AII2IIIIIIIIIIIII
AII2IIIIIIIIIIAAI22IIIIIIIIIIIIIAII2IIIIIIIIIIAAI22IIIIIIIIIIIII
IIIIIIA1IIIIIIIIIIIIIIIIIIIIIIIIIIIIII2IIIIIIIIIIIIIIIIIIIIIIIII
IIIIIIAA1IIIIIIIIIIIIIIIIIIIIIIIIIIIII22IIIIIIIIIIIIIIIIIIIIIIII
IIIIIIAAA1IIIIIIIIIIIIIIIIIIIIIIIIIIII222IIIIIIIIIIIIIIIIIIIIIII
IIIIIIAAA1IIIIIIIIIIIIIIIIIIIIIIIIIIIIA12IIIIIIIIIIIIIIIIIIIIIII
IIIIIIAAA1IIIIIIIIIIIIIIIIIIIIIIIIIIIIAA1IIIIIIIIIIIIIIIIIIIIIII
IIIIIIAAA1IIIIIIIIIIIIIIIIIIIIIIIIIIIIAAA1IIIIIIIIIIIIIIIIIIIIII
IIA1IIIIIIIIIIIIIIIIIIIIIIIIIIIIII2IIIIIIIIIIIIIIIIIIIIIIIIIIIII
IIAA1IIIIIIIIIIIIIIIIIIIIIIIIIIIII22IIIIIIIIIIIIIIIIIIIIIIIIIIII
IIAA1IIIIIIIIIIIIIIIIIIIIIIIIIIIIIA1IIIIIIIIIIIIIIIIIIIIIIIIIIII
IIAAA1IIIIIIIIIIIIIIIIIIIIIIIIIIIIA12IIIIIIIIIIIIIIIIIIIIIIIIIII
IIAAA1IIIIIIIIIIIIIIIIIIIIIIIIIIIIAA1IIIIIIIIIIIIIIIIIIIIIIIIIII
IIAAA1IIIIIIIIIIIIIIIIIIIIIIIIIIIIAAA1IIIIIIIIIIIIIIIIIIIIIIIIII
A1122IIIIIII1IIIIIIIIIIIIIIIIIIIIIIIIIIIIIIIIIIIIIIIIIIIIIIIIIII
A1122IIIIIIIA1122IIIIIII1IIIIIIIIIIIIIIIIIIIIIIIIIIIIIIIIIIIIIII
A1122IIIIIIAA1122IIIIIII1IIIIIIIIIIIIIIIIIIIIIIIIIIIIIIIIIIIIIII
A1122IIIIIIAA1122IIIIIII1IIIIIIIIIIIIIIIIIIA1122IIIIIII1IIIIIIII
A1122IIIIIIAA1122IIIIIII1IIIIIIIA1122IIIIIIA1122IIIIIII1IIIIIIII
A1122IIIIIIAA1122IIIIIII1IIIIIIIA1122IIIIIIAA1122IIIIII11IIIIIII
IIIIIIIIA1IIIIIIIIIIIIIIIIIIIIIIIIIIIIII1IIIIIIIIIIIIIIIIIIIIIII
IIIIIIIIAA1IIIIIIIIIIIIIIIIIIIIIIIIIIIII11IIIIIIIIIIIIIIIIIIIIII
IIIIIIIIAAA1IIIIIIIIIIIIIIIIIIIIIIIIIIII111IIIIIIIIIIIIIIIIIIIII
IIIIIIIIAAA1IIIIIIIIIIIIIIIIIIIIIIIIIIII1A1IIIIIIIIIIIIIIIIIIIII
IIIIIIIIAAA1IIIIIIIIIIIIIIIIIIIIIIIIIIIIAA1IIIIIIIIIIIIIIIIIIIII
IIIIIIIIAAA1IIIIIIIIIIIIIIIIIIIIIIIIIIIIAAA1IIIIIIIIIIIIIIIIIIII
[MLOP] Prefetch Degree Mean: 2.7895
[MLOP] Prefetch Degree SD: 2.04044
[MLOP] Max Score Left Mean (%): 14.9891
[MLOP] Max Score Left SD (%): 21.5617
[MLOP] Max Score Right Mean (%): 69.1825
[MLOP] Max Score Right SD (%): 10.7788
LLC TOTAL     ACCESS:    7142338  HIT:     539171  MISS:    6603167  HIT %:    7.54894  MISS %:    92.4511   MPKI: 32.6261
LLC LOAD      ACCESS:    1286736  HIT:       1951  MISS:    1284785  HIT %:   0.151624  MISS %:    99.8484   MPKI: 6.3481
LLC RFO       ACCESS:     679425  HIT:       2148  MISS:     677277  HIT %:    0.31615  MISS %:    99.6839   MPKI: 3.34641
LLC PREFETCH  ACCESS:    3810335  HIT:      10964  MISS:    3799371  HIT %:   0.287744  MISS %:    99.7123   MPKI: 18.7726
LLC WRITEBACK ACCESS:    1315147  HIT:     523797  MISS:     791350  HIT %:     39.828  MISS %:     60.172   MPKI: 3.91005

RAW hits: 2349582
Loads Generated: 64727562
Loads sent to L1D: 62377980
Stores Generated: 24869058
Stores sent to L1D: 24869059

Region of Interest Statistics

CPU 0 cumulative IPC: 0.267551 instructions: 200000001 cycles: 747521866
ITLB TOTAL     ACCESS:   33190911  HIT:   33190908  MISS:          3  HIT %:        100  MISS %: 9.03862e-06   MPKI: 1.5e-05
ITLB LOAD TRANSLATION ACCESS:   33190911  HIT:   33190908  MISS:          3  HIT %:        100  MISS %: 9.03862e-06   MPKI: 1.5e-05
ITLB PREFETCH  REQUESTED:          0  ISSUED:          0  USEFUL:          0  USELESS:          0
ITLB USEFUL LOAD PREFETCHES:          0 PREFETCH ISSUED TO LOWER LEVEL:          0  ACCURACY: -nan
ITLB TIMELY PREFETCHES:          0 LATE PREFETCHES: 0 DROPPED PREFETCHES: 0
ITLB PREFETCHES SAME FILL-ORIGIN LEVEL: 0 DIFFERENT FILL-ORIGIN LEVEL: 0
ITLB AVERAGE MISS LATENCY: 2807.33 cycles
ITLB RQ	ACCESS:   40509279	FORWARD:          0	MERGED:    7318368	TO_CACHE:   33190911

DTLB TOTAL     ACCESS:   29947580  HIT:   29549356  MISS:     398224  HIT %:    98.6703  MISS %:    1.32974   MPKI: 1.99112
DTLB LOAD TRANSLATION ACCESS:   29947580  HIT:   29549356  MISS:     398224  HIT %:    98.6703  MISS %:    1.32974   MPKI: 1.99112
DTLB PREFETCH  REQUESTED:          0  ISSUED:          0  USEFUL:          0  USELESS:          0
DTLB USEFUL LOAD PREFETCHES:          0 PREFETCH ISSUED TO LOWER LEVEL:          0  ACCURACY: -nan
DTLB TIMELY PREFETCHES:          0 LATE PREFETCHES: 0 DROPPED PREFETCHES: 0
DTLB PREFETCHES SAME FILL-ORIGIN LEVEL: 0 DIFFERENT FILL-ORIGIN LEVEL: 0
DTLB AVERAGE MISS LATENCY: 113.308 cycles
DTLB RQ	ACCESS:   44116867	FORWARD:          0	MERGED:   13695989	TO_CACHE:   30420878

STLB TOTAL     ACCESS:    2259840  HIT:    1861742  MISS:     398098  HIT %:    82.3838  MISS %:    17.6162   MPKI: 1.99049
STLB LOAD TRANSLATION ACCESS:     398227  HIT:        132  MISS:     398095  HIT %:  0.0331469  MISS %:    99.9669   MPKI: 1.99047
STLB TRANSLATION FROM L1D PREFETCHER ACCESS:    1861613  HIT:    1861610  MISS:          3  HIT %:    99.9998  MISS %: 0.000161151   MPKI: 1.5e-05
STLB PREFETCH  REQUESTED:          0  ISSUED:          0  USEFUL:          1  USELESS:          2
STLB USEFUL LOAD PREFETCHES:          1 PREFETCH ISSUED TO LOWER LEVEL:          0  ACCURACY: inf
STLB TIMELY PREFETCHES:          1 LATE PREFETCHES: 0 DROPPED PREFETCHES: 0
STLB PREFETCHES SAME FILL-ORIGIN LEVEL: 0 DIFFERENT FILL-ORIGIN LEVEL: 0
STLB AVERAGE MISS LATENCY: 104.303 cycles
STLB RQ	ACCESS:    5118463	FORWARD:          0	MERGED:    2858621	TO_CACHE:    2259842

STLB Hit, L1D data hit: 0
STLB Hit, L2C data hit: 0
STLB Hit, LLC data hit: 0
STLB Hit, LLC data miss: 0
STLB STLB hints to L2: 0
L1D TOTAL     ACCESS:   42232538  HIT:   36849118  MISS:    5383420  HIT %:    87.2529  MISS %:    12.7471   MPKI: 26.9171
L1D LOAD      ACCESS:   18819028  HIT:   16673547  MISS:    2145481  HIT %:    88.5994  MISS %:    11.4006   MPKI: 10.7274
L1D RFO       ACCESS:   20808831  HIT:   20175571  MISS:     633260  HIT %:    96.9568  MISS %:    3.04323   MPKI: 3.1663
L1D PREFETCH  ACCESS:    2604679  HIT:          0  MISS:    2604679  HIT %:          0  MISS %:        100   MPKI: 13.0234
L1D PREFETCH  REQUESTED:    9495302  ISSUED:    9495302  USEFUL:    1243012  USELESS:    1361712
L1D USEFUL LOAD PREFETCHES:    1243012 PREFETCH ISSUED TO LOWER LEVEL:    4186595  ACCURACY: 29.6903
L1D TIMELY PREFETCHES:    1243012 LATE PREFETCHES: 456724 DROPPED PREFETCHES: 0
L1D PREFETCHES SAME FILL-ORIGIN LEVEL: 3061408 DIFFERENT FILL-ORIGIN LEVEL: 1125187
L1D AVERAGE MISS LATENCY: 641.4 cycles
L1D RQ	ACCESS:   61435232	FORWARD:          0	MERGED:   41574100	TO_CACHE:   19663602
L1D WQ	ACCESS:   24499377	FORWARD:     197530	MERGED:      46112	TO_CACHE:   24453265
L1D PQ	ACCESS:    4775066	FORWARD:          0	MERGED:      54830	TO_CACHE:    4720236

L1D UNIQUE REGIONS ACCESSED: 0
L1D REGIONS CONFLICTS: 0
L1D Cross Page Prefetch Requests: 0
L1D Same Page Prefetch Requests: 6045530
L1D ROI Sum of L1D PQ occupancy: 54484732
L1D PREFETCHES PUSHED FROM L2C: 0
L1I TOTAL     ACCESS:   40509271  HIT:   40509223  MISS:         48  HIT %:    99.9999  MISS %: 0.000118491   MPKI: 0.00024
L1I LOAD      ACCESS:   40509271  HIT:   40509223  MISS:         48  HIT %:    99.9999  MISS %: 0.000118491   MPKI: 0.00024
L1I PREFETCH  REQUESTED:          0  ISSUED:          0  USEFUL:          0  USELESS:          0
L1I USEFUL LOAD PREFETCHES:          0 PREFETCH ISSUED TO LOWER LEVEL:          0  ACCURACY: -nan
L1I TIMELY PREFETCHES:          0 LATE PREFETCHES: 0 DROPPED PREFETCHES: 0
L1I PREFETCHES SAME FILL-ORIGIN LEVEL: 0 DIFFERENT FILL-ORIGIN LEVEL: 0
L1I AVERAGE MISS LATENCY: 1710.83 cycles
L1I RQ	ACCESS:   56895104	FORWARD:          0	MERGED:   16385825	TO_CACHE:   40509279

BTB TOTAL     ACCESS:   13461152  HIT:   13461077  MISS:         75  HIT %:    99.9994  MISS %: 0.000557159   MPKI: 0.000375
BTB BRANCH_DIRECT_JUMP	ACCESS:     160010  HIT:     160000  MISS:         10
BTB BRANCH_INDIRECT	ACCESS:          0  HIT:          0  MISS:          0
BTB BRANCH_CONDITIONAL	ACCESS:    9941911  HIT:    9941874  MISS:         37
BTB BRANCH_DIRECT_CALL	ACCESS:    1679615  HIT:    1679601  MISS:         14
BTB BRANCH_INDIRECT_CALL	ACCESS:          0  HIT:          0  MISS:          0
BTB BRANCH_RETURN	ACCESS:    1679616  HIT:    1679602  MISS:         14
BTB BRANCH_OTHER ACCESS:          0  HIT:          0  MISS:          0

L2C TOTAL     ACCESS:    7894576  HIT:    1975962  MISS:    5918614  HIT %:    25.0294  MISS %:    74.9706   MPKI: 29.5931
L2C LOAD      ACCESS:    1688806  HIT:     276033  MISS:    1412773  HIT %:    16.3449  MISS %:    83.6551   MPKI: 7.06386
L2C DATA LOAD MPKI: 7.06362
L2C INSTRUCTION LOAD MPKI: 0.00024
L2C RFO       ACCESS:     633260  HIT:         20  MISS:     633240  HIT %: 0.00315826  MISS %:    99.9968   MPKI: 3.1662
L2C PREFETCH  ACCESS:    3900776  HIT:     269067  MISS:    3631709  HIT %:    6.89778  MISS %:    93.1022   MPKI: 18.1585
L2C DATA PREFETCH MPKI: 18.1585
L2C INSTRUCTION PREFETCH MPKI: 0
L2C WRITEBACK ACCESS:    1272798  HIT:    1082516  MISS:     190282  HIT %:    85.0501  MISS %:    14.9499   MPKI: 0.95141
L2C LOAD TRANSLATION ACCESS:     398931  HIT:     348326  MISS:      50605  HIT %:    87.3148  MISS %:    12.6852   MPKI: 0.253025
L2C TRANSLATION FROM L1D PREFETCHER ACCESS:          5  HIT:          0  MISS:          5  HIT %:          0  MISS %:        100   MPKI: 2.5e-05
L2C PREFETCH  REQUESTED:          0  ISSUED:          0  USEFUL:     276038  USELESS:    3356795
L2C USEFUL LOAD PREFETCHES:     276038 PREFETCH ISSUED TO LOWER LEVEL:    3759828  ACCURACY: 7.34177
L2C TIMELY PREFETCHES:     276038 LATE PREFETCHES: 128113 DROPPED PREFETCHES: 0
L2C PREFETCHES SAME FILL-ORIGIN LEVEL: 1124870 DIFFERENT FILL-ORIGIN LEVEL: 0
L2C AVERAGE MISS LATENCY: 768.875 cycles
L2C RQ	ACCESS:    2721009	FORWARD:          0	MERGED:          0	TO_CACHE:    2721009
L2C WQ	ACCESS:    1272798	FORWARD:          0	MERGED:          0	TO_CACHE:    1272798
L2C PQ	ACCESS:    4186595	FORWARD:          0	MERGED:         14	TO_CACHE:    4186581

L2C Instructions Evicting Data 46
L2C Translations Evicting Data 49381
L2C Data Evicting Data 5629528
L2C Instructions Evicting Instructions 0
L2C Translations Evicting Instructions 0
L2C Data Evicting Instructions 47
L2C Instructions Evicting Translations 2
L2C Translations Evicting Translations 1229
L2C Data Evicting Translations 48099
L2C Dense regions hint from L2: 0
PSCL5 TOTAL     ACCESS:     398098  HIT:     398098  MISS:          0  HIT %:        100  MISS %:          0   MPKI: 0
PSCL5 LOAD TRANSLATION ACCESS:     398095  HIT:     398095  MISS:          0  HIT %:        100  MISS %:          0   MPKI: 0
PSCL5 TRANSLATION FROM L1D PREFETCHER ACCESS:          3  HIT:          3  MISS:          0  HIT %:        100  MISS %:          0   MPKI: 0
PSCL5 PREFETCH  REQUESTED:          0  ISSUED:          0  USEFUL:          0  USELESS:          0
PSCL5 USEFUL LOAD PREFETCHES:          0 PREFETCH ISSUED TO LOWER LEVEL:          0  ACCURACY: -nan
PSCL5 TIMELY PREFETCHES:          0 LATE PREFETCHES: 0 DROPPED PREFETCHES: 0
PSCL5 PREFETCHES SAME FILL-ORIGIN LEVEL: 0 DIFFERENT FILL-ORIGIN LEVEL: 0

PSCL4 TOTAL     ACCESS:     398098  HIT:     398098  MISS:          0  HIT %:        100  MISS %:          0   MPKI: 0
PSCL4 LOAD TRANSLATION ACCESS:     398095  HIT:     398095  MISS:          0  HIT %:        100  MISS %:          0   MPKI: 0
PSCL4 TRANSLATION FROM L1D PREFETCHER ACCESS:          3  HIT:          3  MISS:          0  HIT %:        100  MISS %:          0   MPKI: 0
PSCL4 PREFETCH  REQUESTED:          0  ISSUED:          0  USEFUL:          0  USELESS:          0
PSCL4 USEFUL LOAD PREFETCHES:          0 PREFETCH ISSUED TO LOWER LEVEL:          0  ACCURACY: -nan
PSCL4 TIMELY PREFETCHES:          0 LATE PREFETCHES: 0 DROPPED PREFETCHES: 0
PSCL4 PREFETCHES SAME FILL-ORIGIN LEVEL: 0 DIFFERENT FILL-ORIGIN LEVEL: 0

PSCL3 TOTAL     ACCESS:     398098  HIT:     398098  MISS:          0  HIT %:        100  MISS %:          0   MPKI: 0
PSCL3 LOAD TRANSLATION ACCESS:     398095  HIT:     398095  MISS:          0  HIT %:        100  MISS %:          0   MPKI: 0
PSCL3 TRANSLATION FROM L1D PREFETCHER ACCESS:          3  HIT:          3  MISS:          0  HIT %:        100  MISS %:          0   MPKI: 0
PSCL3 PREFETCH  REQUESTED:          0  ISSUED:          0  USEFUL:          0  USELESS:          0
PSCL3 USEFUL LOAD PREFETCHES:          0 PREFETCH ISSUED TO LOWER LEVEL:          0  ACCURACY: -nan
PSCL3 TIMELY PREFETCHES:          0 LATE PREFETCHES: 0 DROPPED PREFETCHES: 0
PSCL3 PREFETCHES SAME FILL-ORIGIN LEVEL: 0 DIFFERENT FILL-ORIGIN LEVEL: 0

PSCL2 TOTAL     ACCESS:     398098  HIT:     397246  MISS:        852  HIT %:     99.786  MISS %:   0.214018   MPKI: 0.00426
PSCL2 LOAD TRANSLATION ACCESS:     398097  HIT:     397245  MISS:        852  HIT %:     99.786  MISS %:   0.214018   MPKI: 0.00426
PSCL2 TRANSLATION FROM L1D PREFETCHER ACCESS:          1  HIT:          1  MISS:          0  HIT %:        100  MISS %:          0   MPKI: 0
PSCL2 PREFETCH  REQUESTED:          0  ISSUED:          0  USEFUL:          0  USELESS:          0
PSCL2 USEFUL LOAD PREFETCHES:          0 PREFETCH ISSUED TO LOWER LEVEL:          0  ACCURACY: -nan
PSCL2 TIMELY PREFETCHES:          0 LATE PREFETCHES: 0 DROPPED PREFETCHES: 0
PSCL2 PREFETCHES SAME FILL-ORIGIN LEVEL: 0 DIFFERENT FILL-ORIGIN LEVEL: 0

LLC TOTAL     ACCESS:    6997465  HIT:     436602  MISS:    6560863  HIT %:    6.23943  MISS %:    93.7606   MPKI: 32.8043
LLC LOAD      ACCESS:    1284660  HIT:       1346  MISS:    1283314  HIT %:   0.104775  MISS %:    99.8952   MPKI: 6.41657
LLC RFO       ACCESS:     633240  HIT:        610  MISS:     632630  HIT %:    0.09633  MISS %:    99.9037   MPKI: 3.16315
LLC PREFETCH  ACCESS:    3759822  HIT:       9147  MISS:    3750675  HIT %:   0.243283  MISS %:    99.7567   MPKI: 18.7534
LLC WRITEBACK ACCESS:    1269133  HIT:     425132  MISS:     844001  HIT %:    33.4978  MISS %:    66.5022   MPKI: 4.22
LLC LOAD TRANSLATION ACCESS:      50605  HIT:        367  MISS:      50238  HIT %:   0.725225  MISS %:    99.2748   MPKI: 0.25119
LLC TRANSLATION FROM L1D PREFETCHER ACCESS:          5  HIT:          0  MISS:          5  HIT %:          0  MISS %:        100   MPKI: 2.5e-05
LLC PREFETCH  REQUESTED:          0  ISSUED:          0  USEFUL:       7892  USELESS:   15136014
LLC USEFUL LOAD PREFETCHES:       7892 PREFETCH ISSUED TO LOWER LEVEL:   15114546  ACCURACY: 0.0522146
LLC TIMELY PREFETCHES:       7892 LATE PREFETCHES: 0 DROPPED PREFETCHES: 0
LLC PREFETCHES SAME FILL-ORIGIN LEVEL: 0 DIFFERENT FILL-ORIGIN LEVEL: 0
LLC AVERAGE MISS LATENCY: 2724.81 cycles
LLC RQ	ACCESS:    7957728	FORWARD:          0	MERGED:          0	TO_CACHE:    7957728
LLC WQ	ACCESS:    5151802	FORWARD:          0	MERGED:          0	TO_CACHE:    5151802
LLC PQ	ACCESS:   15109522	FORWARD:          0	MERGED:          0	TO_CACHE:   15109522

LLC Dense regions hint to LLC: 0

RAW hits: 2349086
Loads Generated: 63784320
Loads sent to L1D: 61435232
Stores Generated: 24499372
Stores sent to L1D: 24499377
Major fault: 0 Minor fault: 93718
Allocated PAGES: 375745

CPU 1 cumulative IPC: 0.269156 instructions: 200000001 cycles: 743063211
ITLB TOTAL     ACCESS:   33182202  HIT:   33182199  MISS:          3  HIT %:        100  MISS %: 9.04099e-06   MPKI: 1.5e-05
ITLB LOAD TRANSLATION ACCESS:   33182202  HIT:   33182199  MISS:          3  HIT %:        100  MISS %: 9.04099e-06   MPKI: 1.5e-05
ITLB PREFETCH  REQUESTED:          0  ISSUED:          0  USEFUL:          0  USELESS:          0
ITLB USEFUL LOAD PREFETCHES:          0 PREFETCH ISSUED TO LOWER LEVEL:          0  ACCURACY: -nan
ITLB TIMELY PREFETCHES:          0 LATE PREFETCHES: 0 DROPPED PREFETCHES: 0
ITLB PREFETCHES SAME FILL-ORIGIN LEVEL: 0 DIFFERENT FILL-ORIGIN LEVEL: 0
ITLB AVERAGE MISS LATENCY: 1716 cycles
ITLB RQ	ACCESS:   40607368	FORWARD:          0	MERGED:    7338473	TO_CACHE:   33268895

DTLB TOTAL     ACCESS:   29946545  HIT:   29548322  MISS:     398223  HIT %:    98.6702  MISS %:    1.32978   MPKI: 1.99111
DTLB LOAD TRANSLATION ACCESS:   29946545  HIT:   29548322  MISS:     398223  HIT %:    98.6702  MISS %:    1.32978   MPKI: 1.99111
DTLB PREFETCH  REQUESTED:          0  ISSUED:          0  USEFUL:          0  USELESS:          0
DTLB USEFUL LOAD PREFETCHES:          0 PREFETCH ISSUED TO LOWER LEVEL:          0  ACCURACY: -nan
DTLB TIMELY PREFETCHES:          0 LATE PREFETCHES: 0 DROPPED PREFETCHES: 0
DTLB PREFETCHES SAME FILL-ORIGIN LEVEL: 0 DIFFERENT FILL-ORIGIN LEVEL: 0
DTLB AVERAGE MISS LATENCY: 114.743 cycles
DTLB RQ	ACCESS:   44369869	FORWARD:          0	MERGED:   13814111	TO_CACHE:   30555758

STLB TOTAL     ACCESS:    2254836  HIT:    1856738  MISS:     398098  HIT %:    82.3447  MISS %:    17.6553   MPKI: 1.99049
STLB LOAD TRANSLATION ACCESS:     398226  HIT:        132  MISS:     398094  HIT %:   0.033147  MISS %:    99.9669   MPKI: 1.99047
STLB TRANSLATION FROM L1D PREFETCHER ACCESS:    1856610  HIT:    1856606  MISS:          4  HIT %:    99.9998  MISS %: 0.000215446   MPKI: 2e-05
STLB PREFETCH  REQUESTED:          0  ISSUED:          0  USEFUL:          1  USELESS:          3
STLB USEFUL LOAD PREFETCHES:          1 PREFETCH ISSUED TO LOWER LEVEL:          0  ACCURACY: inf
STLB TIMELY PREFETCHES:          1 LATE PREFETCHES: 0 DROPPED PREFETCHES: 0
STLB PREFETCHES SAME FILL-ORIGIN LEVEL: 0 DIFFERENT FILL-ORIGIN LEVEL: 0
STLB AVERAGE MISS LATENCY: 105.721 cycles
STLB RQ	ACCESS:    5126646	FORWARD:          0	MERGED:    2863279	TO_CACHE:    2263367

STLB Hit, L1D data hit: 0
STLB Hit, L2C data hit: 0
STLB Hit, LLC data hit: 0
STLB Hit, LLC data miss: 0
STLB STLB hints to L2: 0
L1D TOTAL     ACCESS:   42247784  HIT:   36849829  MISS:    5397955  HIT %:    87.2231  MISS %:    12.7769   MPKI: 26.9898
L1D LOAD      ACCESS:   18816916  HIT:   16675440  MISS:    2141476  HIT %:    88.6194  MISS %:    11.3806   MPKI: 10.7074
L1D RFO       ACCESS:   20807550  HIT:   20174388  MISS:     633162  HIT %:    96.9571  MISS %:    3.04294   MPKI: 3.16581
L1D PREFETCH  ACCESS:    2623318  HIT:          1  MISS:    2623317  HIT %: 3.81197e-05  MISS %:        100   MPKI: 13.1166
L1D PREFETCH  REQUESTED:    9510389  ISSUED:    9510389  USEFUL:    1257847  USELESS:    1376560
L1D USEFUL LOAD PREFETCHES:    1257847 PREFETCH ISSUED TO LOWER LEVEL:    4195599  ACCURACY: 29.9802
L1D TIMELY PREFETCHES:    1257847 LATE PREFETCHES: 461097 DROPPED PREFETCHES: 0
L1D PREFETCHES SAME FILL-ORIGIN LEVEL: 3095346 DIFFERENT FILL-ORIGIN LEVEL: 1100253
L1D AVERAGE MISS LATENCY: 646.606 cycles
L1D RQ	ACCESS:   61653188	FORWARD:          0	MERGED:   41685412	TO_CACHE:   19771288
L1D WQ	ACCESS:   24645214	FORWARD:     196488	MERGED:      46633	TO_CACHE:   24598581
L1D PQ	ACCESS:    4782589	FORWARD:          0	MERGED:      54789	TO_CACHE:    4727800

L1D UNIQUE REGIONS ACCESSED: 0
L1D REGIONS CONFLICTS: 0
L1D Cross Page Prefetch Requests: 0
L1D Same Page Prefetch Requests: 6087753
L1D ROI Sum of L1D PQ occupancy: 54640162
L1D PREFETCHES PUSHED FROM L2C: 0
L1I TOTAL     ACCESS:   40497954  HIT:   40497906  MISS:         48  HIT %:    99.9999  MISS %: 0.000118525   MPKI: 0.00024
L1I LOAD      ACCESS:   40497954  HIT:   40497906  MISS:         48  HIT %:    99.9999  MISS %: 0.000118525   MPKI: 0.00024
L1I PREFETCH  REQUESTED:          0  ISSUED:          0  USEFUL:          0  USELESS:          0
L1I USEFUL LOAD PREFETCHES:          0 PREFETCH ISSUED TO LOWER LEVEL:          0  ACCURACY: -nan
L1I TIMELY PREFETCHES:          0 LATE PREFETCHES: 0 DROPPED PREFETCHES: 0
L1I PREFETCHES SAME FILL-ORIGIN LEVEL: 0 DIFFERENT FILL-ORIGIN LEVEL: 0
L1I AVERAGE MISS LATENCY: 1372.77 cycles
L1I RQ	ACCESS:   57019151	FORWARD:          0	MERGED:   16411783	TO_CACHE:   40607368

BTB TOTAL     ACCESS:   13461193  HIT:   13461105  MISS:         88  HIT %:    99.9993  MISS %: 0.000653731   MPKI: 0.00044
BTB BRANCH_DIRECT_JUMP	ACCESS:     160010  HIT:     160000  MISS:         10
BTB BRANCH_INDIRECT	ACCESS:          0  HIT:          0  MISS:          0
BTB BRANCH_CONDITIONAL	ACCESS:    9941910  HIT:    9941868  MISS:         42
BTB BRANCH_DIRECT_CALL	ACCESS:    1679636  HIT:    1679618  MISS:         18
BTB BRANCH_INDIRECT_CALL	ACCESS:          0  HIT:          0  MISS:          0
BTB BRANCH_RETURN	ACCESS:    1679637  HIT:    1679619  MISS:         18
BTB BRANCH_OTHER ACCESS:          0  HIT:          0  MISS:          0

L2C TOTAL     ACCESS:    7886661  HIT:    1912771  MISS:    5973890  HIT %:    24.2532  MISS %:    75.7468   MPKI: 29.8694
L2C LOAD      ACCESS:    1689384  HIT:     278947  MISS:    1410437  HIT %:    16.5118  MISS %:    83.4882   MPKI: 7.05218
L2C DATA LOAD MPKI: 7.05194
L2C INSTRUCTION LOAD MPKI: 0.00024
L2C RFO       ACCESS:     633162  HIT:          0  MISS:     633162  HIT %:          0  MISS %:        100   MPKI: 3.16581
L2C PREFETCH  ACCESS:    3892474  HIT:     263162  MISS:    3629312  HIT %:    6.76079  MISS %:    93.2392   MPKI: 18.1466
L2C DATA PREFETCH MPKI: 18.1466
L2C INSTRUCTION PREFETCH MPKI: 0
L2C WRITEBACK ACCESS:    1272705  HIT:    1022305  MISS:     250400  HIT %:    80.3254  MISS %:    19.6746   MPKI: 1.252
L2C LOAD TRANSLATION ACCESS:     398929  HIT:     348357  MISS:      50572  HIT %:    87.3231  MISS %:    12.6769   MPKI: 0.25286
L2C TRANSLATION FROM L1D PREFETCHER ACCESS:          7  HIT:          0  MISS:          7  HIT %:          0  MISS %:        100   MPKI: 3.5e-05
L2C PREFETCH  REQUESTED:          0  ISSUED:          0  USEFUL:     278930  USELESS:    3370971
L2C USEFUL LOAD PREFETCHES:     278930 PREFETCH ISSUED TO LOWER LEVEL:    3775710  ACCURACY: 7.38748
L2C TIMELY PREFETCHES:     278930 LATE PREFETCHES: 126509 DROPPED PREFETCHES: 0
L2C PREFETCHES SAME FILL-ORIGIN LEVEL: 1099927 DIFFERENT FILL-ORIGIN LEVEL: 0
L2C AVERAGE MISS LATENCY: 764.413 cycles
L2C RQ	ACCESS:    2741838	FORWARD:          0	MERGED:          0	TO_CACHE:    2741838
L2C WQ	ACCESS:    1290988	FORWARD:          0	MERGED:          0	TO_CACHE:    1290988
L2C PQ	ACCESS:    4195599	FORWARD:          0	MERGED:         35	TO_CACHE:    4195564

L2C Instructions Evicting Data 47
L2C Translations Evicting Data 49290
L2C Data Evicting Data 5664426
L2C Instructions Evicting Instructions 0
L2C Translations Evicting Instructions 0
L2C Data Evicting Instructions 43
L2C Instructions Evicting Translations 1
L2C Translations Evicting Translations 1369
L2C Data Evicting Translations 48003
L2C Dense regions hint from L2: 0
PSCL5 TOTAL     ACCESS:     398098  HIT:     398098  MISS:          0  HIT %:        100  MISS %:          0   MPKI: 0
PSCL5 LOAD TRANSLATION ACCESS:     398094  HIT:     398094  MISS:          0  HIT %:        100  MISS %:          0   MPKI: 0
PSCL5 TRANSLATION FROM L1D PREFETCHER ACCESS:          4  HIT:          4  MISS:          0  HIT %:        100  MISS %:          0   MPKI: 0
PSCL5 PREFETCH  REQUESTED:          0  ISSUED:          0  USEFUL:          0  USELESS:          0
PSCL5 USEFUL LOAD PREFETCHES:          0 PREFETCH ISSUED TO LOWER LEVEL:          0  ACCURACY: -nan
PSCL5 TIMELY PREFETCHES:          0 LATE PREFETCHES: 0 DROPPED PREFETCHES: 0
PSCL5 PREFETCHES SAME FILL-ORIGIN LEVEL: 0 DIFFERENT FILL-ORIGIN LEVEL: 0

PSCL4 TOTAL     ACCESS:     398098  HIT:     398098  MISS:          0  HIT %:        100  MISS %:          0   MPKI: 0
PSCL4 LOAD TRANSLATION ACCESS:     398094  HIT:     398094  MISS:          0  HIT %:        100  MISS %:          0   MPKI: 0
PSCL4 TRANSLATION FROM L1D PREFETCHER ACCESS:          4  HIT:          4  MISS:          0  HIT %:        100  MISS %:          0   MPKI: 0
PSCL4 PREFETCH  REQUESTED:          0  ISSUED:          0  USEFUL:          0  USELESS:          0
PSCL4 USEFUL LOAD PREFETCHES:          0 PREFETCH ISSUED TO LOWER LEVEL:          0  ACCURACY: -nan
PSCL4 TIMELY PREFETCHES:          0 LATE PREFETCHES: 0 DROPPED PREFETCHES: 0
PSCL4 PREFETCHES SAME FILL-ORIGIN LEVEL: 0 DIFFERENT FILL-ORIGIN LEVEL: 0

PSCL3 TOTAL     ACCESS:     398098  HIT:     398098  MISS:          0  HIT %:        100  MISS %:          0   MPKI: 0
PSCL3 LOAD TRANSLATION ACCESS:     398094  HIT:     398094  MISS:          0  HIT %:        100  MISS %:          0   MPKI: 0
PSCL3 TRANSLATION FROM L1D PREFETCHER ACCESS:          4  HIT:          4  MISS:          0  HIT %:        100  MISS %:          0   MPKI: 0
PSCL3 PREFETCH  REQUESTED:          0  ISSUED:          0  USEFUL:          0  USELESS:          0
PSCL3 USEFUL LOAD PREFETCHES:          0 PREFETCH ISSUED TO LOWER LEVEL:          0  ACCURACY: -nan
PSCL3 TIMELY PREFETCHES:          0 LATE PREFETCHES: 0 DROPPED PREFETCHES: 0
PSCL3 PREFETCHES SAME FILL-ORIGIN LEVEL: 0 DIFFERENT FILL-ORIGIN LEVEL: 0

PSCL2 TOTAL     ACCESS:     398098  HIT:     397246  MISS:        852  HIT %:     99.786  MISS %:   0.214018   MPKI: 0.00426
PSCL2 LOAD TRANSLATION ACCESS:     398097  HIT:     397245  MISS:        852  HIT %:     99.786  MISS %:   0.214018   MPKI: 0.00426
PSCL2 TRANSLATION FROM L1D PREFETCHER ACCESS:          1  HIT:          1  MISS:          0  HIT %:        100  MISS %:          0   MPKI: 0
PSCL2 PREFETCH  REQUESTED:          0  ISSUED:          0  USEFUL:          0  USELESS:          0
PSCL2 USEFUL LOAD PREFETCHES:          0 PREFETCH ISSUED TO LOWER LEVEL:          0  ACCURACY: -nan
PSCL2 TIMELY PREFETCHES:          0 LATE PREFETCHES: 0 DROPPED PREFETCHES: 0
PSCL2 PREFETCHES SAME FILL-ORIGIN LEVEL: 0 DIFFERENT FILL-ORIGIN LEVEL: 0

LLC TOTAL     ACCESS:    6992481  HIT:     893979  MISS:    6098502  HIT %:    12.7849  MISS %:    87.2151   MPKI: 30.4925
LLC LOAD      ACCESS:    1283928  HIT:       2718  MISS:    1281210  HIT %:   0.211694  MISS %:    99.7883   MPKI: 6.40605
LLC RFO       ACCESS:     633162  HIT:        163  MISS:     632999  HIT %:  0.0257438  MISS %:    99.9743   MPKI: 3.16499
LLC PREFETCH  ACCESS:    3755821  HIT:       7665  MISS:    3748156  HIT %:   0.204083  MISS %:    99.7959   MPKI: 18.7408
LLC WRITEBACK ACCESS:    1268991  HIT:     882990  MISS:     386001  HIT %:    69.5821  MISS %:    30.4179   MPKI: 1.93
LLC LOAD TRANSLATION ACCESS:      50572  HIT:        443  MISS:      50129  HIT %:   0.875979  MISS %:     99.124   MPKI: 0.250645
LLC TRANSLATION FROM L1D PREFETCHER ACCESS:          7  HIT:          0  MISS:          7  HIT %:          0  MISS %:        100   MPKI: 3.5e-05
LLC PREFETCH  REQUESTED:          0  ISSUED:          0  USEFUL:       7892  USELESS:   15136014
LLC USEFUL LOAD PREFETCHES:       7892 PREFETCH ISSUED TO LOWER LEVEL:   15114546  ACCURACY: 0.0522146
LLC TIMELY PREFETCHES:       7892 LATE PREFETCHES: 0 DROPPED PREFETCHES: 0
LLC PREFETCHES SAME FILL-ORIGIN LEVEL: 0 DIFFERENT FILL-ORIGIN LEVEL: 0
LLC AVERAGE MISS LATENCY: 2931.4 cycles
LLC RQ	ACCESS:    7957728	FORWARD:          0	MERGED:          0	TO_CACHE:    7957728
LLC WQ	ACCESS:    5151802	FORWARD:          0	MERGED:          0	TO_CACHE:    5151802
LLC PQ	ACCESS:   15109522	FORWARD:          0	MERGED:          0	TO_CACHE:   15109522

LLC Dense regions hint to LLC: 0

RAW hits: 2350148
Loads Generated: 63783959
Loads sent to L1D: 61433818
Stores Generated: 24498958
Stores sent to L1D: 24498960
Major fault: 0 Minor fault: 94002
Allocated PAGES: 375745

CPU 2 cumulative IPC: 0.268483 instructions: 200000003 cycles: 744926937
ITLB TOTAL     ACCESS:   33209824  HIT:   33209821  MISS:          3  HIT %:        100  MISS %: 9.03347e-06   MPKI: 1.5e-05
ITLB LOAD TRANSLATION ACCESS:   33209824  HIT:   33209821  MISS:          3  HIT %:        100  MISS %: 9.03347e-06   MPKI: 1.5e-05
ITLB PREFETCH  REQUESTED:          0  ISSUED:          0  USEFUL:          0  USELESS:          0
ITLB USEFUL LOAD PREFETCHES:          0 PREFETCH ISSUED TO LOWER LEVEL:          0  ACCURACY: -nan
ITLB TIMELY PREFETCHES:          0 LATE PREFETCHES: 0 DROPPED PREFETCHES: 0
ITLB PREFETCHES SAME FILL-ORIGIN LEVEL: 0 DIFFERENT FILL-ORIGIN LEVEL: 0
ITLB AVERAGE MISS LATENCY: 1311.67 cycles
ITLB RQ	ACCESS:   40598117	FORWARD:          0	MERGED:    7335801	TO_CACHE:   33262316

[...]
L2C LOAD      ACCESS:    1694234  HIT:     283119  MISS:    1411115  HIT %:    16.7107  MISS %:    83.2893   MPKI: 7.05558
L2C DATA LOAD MPKI: 7.05534
L2C INSTRUCTION LOAD MPKI: 0.00024
L2C RFO       ACCESS:     633184  HIT:         11  MISS:     633173  HIT %: 0.00173725  MISS %:    99.9983   MPKI: 3.16587
L2C PREFETCH  ACCESS:    3911796  HIT:     266936  MISS:    3644860  HIT %:    6.82387  MISS %:    93.1761   MPKI: 18.2243
L2C DATA PREFETCH MPKI: 18.2243
L2C INSTRUCTION PREFETCH MPKI: 0
L2C WRITEBACK ACCESS:    1272726  HIT:    1075758  MISS:     196968  HIT %:    84.5239  MISS %:    15.4761   MPKI: 0.98484
L2C LOAD TRANSLATION ACCESS:     398928  HIT:     348408  MISS:      50520  HIT %:    87.3361  MISS %:    12.6639   MPKI: 0.2526
L2C TRANSLATION FROM L1D PREFETCHER ACCESS:          8  HIT:          1  MISS:          7  HIT %:       12.5  MISS %:       87.5   MPKI: 3.5e-05
L2C PREFETCH  REQUESTED:          0  ISSUED:          0  USEFUL:     283045  USELESS:    3401172
L2C USEFUL LOAD PREFETCHES:     283045 PREFETCH ISSUED TO LOWER LEVEL:    3810338  ACCURACY: 7.42834
L2C TIMELY PREFETCHES:     283045 LATE PREFETCHES: 126720 DROPPED PREFETCHES: 0
L2C PREFETCHES SAME FILL-ORIGIN LEVEL: 1138888 DIFFERENT FILL-ORIGIN LEVEL: 0
L2C AVERAGE MISS LATENCY: 766.444 cycles
L2C RQ	ACCESS:    2776226	FORWARD:          0	MERGED:          0	TO_CACHE:    2776226
L2C WQ	ACCESS:    1318811	FORWARD:          0	MERGED:          0	TO_CACHE:    1318811
L2C PQ	ACCESS:    4234526	FORWARD:          0	MERGED:         31	TO_CACHE:    4234495

L2C Instructions Evicting Data 48
L2C Translations Evicting Data 49010
L2C Data Evicting Data 5728659
L2C Instructions Evicting Instructions 0
L2C Translations Evicting Instructions 1
L2C Data Evicting Instructions 47
L2C Instructions Evicting Translations 0
L2C Translations Evicting Translations 1684
L2C Data Evicting Translations 47742
L2C Dense regions hint from L2: 0
PSCL5 TOTAL     ACCESS:     398098  HIT:     398098  MISS:          0  HIT %:        100  MISS %:          0   MPKI: 0
PSCL5 LOAD TRANSLATION ACCESS:     398093  HIT:     398093  MISS:          0  HIT %:        100  MISS %:          0   MPKI: 0
PSCL5 TRANSLATION FROM L1D PREFETCHER ACCESS:          5  HIT:          5  MISS:          0  HIT %:        100  MISS %:          0   MPKI: 0
PSCL5 PREFETCH  REQUESTED:          0  ISSUED:          0  USEFUL:          0  USELESS:          0
PSCL5 USEFUL LOAD PREFETCHES:          0 PREFETCH ISSUED TO LOWER LEVEL:          0  ACCURACY: -nan
PSCL5 TIMELY PREFETCHES:          0 LATE PREFETCHES: 0 DROPPED PREFETCHES: 0
PSCL5 PREFETCHES SAME FILL-ORIGIN LEVEL: 0 DIFFERENT FILL-ORIGIN LEVEL: 0

PSCL4 TOTAL     ACCESS:     398098  HIT:     398098  MISS:          0  HIT %:        100  MISS %:          0   MPKI: 0
PSCL4 LOAD TRANSLATION ACCESS:     398093  HIT:     398093  MISS:          0  HIT %:        100  MISS %:          0   MPKI: 0
PSCL4 TRANSLATION FROM L1D PREFETCHER ACCESS:          5  HIT:          5  MISS:          0  HIT %:        100  MISS %:          0   MPKI: 0
PSCL4 PREFETCH  REQUESTED:          0  ISSUED:          0  USEFUL:          0  USELESS:          0
PSCL4 USEFUL LOAD PREFETCHES:          0 PREFETCH ISSUED TO LOWER LEVEL:          0  ACCURACY: -nan
PSCL4 TIMELY PREFETCHES:          0 LATE PREFETCHES: 0 DROPPED PREFETCHES: 0
PSCL4 PREFETCHES SAME FILL-ORIGIN LEVEL: 0 DIFFERENT FILL-ORIGIN LEVEL: 0

PSCL3 TOTAL     ACCESS:     398098  HIT:     398098  MISS:          0  HIT %:        100  MISS %:          0   MPKI: 0
PSCL3 LOAD TRANSLATION ACCESS:     398093  HIT:     398093  MISS:          0  HIT %:        100  MISS %:          0   MPKI: 0
PSCL3 TRANSLATION FROM L1D PREFETCHER ACCESS:          5  HIT:          5  MISS:          0  HIT %:        100  MISS %:          0   MPKI: 0
PSCL3 PREFETCH  REQUESTED:          0  ISSUED:          0  USEFUL:          0  USELESS:          0
PSCL3 USEFUL LOAD PREFETCHES:          0 PREFETCH ISSUED TO LOWER LEVEL:          0  ACCURACY: -nan
PSCL3 TIMELY PREFETCHES:          0 LATE PREFETCHES: 0 DROPPED PREFETCHES: 0
PSCL3 PREFETCHES SAME FILL-ORIGIN LEVEL: 0 DIFFERENT FILL-ORIGIN LEVEL: 0

PSCL2 TOTAL     ACCESS:     398098  HIT:     397246  MISS:        852  HIT %:     99.786  MISS %:   0.214018   MPKI: 0.00426
PSCL2 LOAD TRANSLATION ACCESS:     398096  HIT:     397244  MISS:        852  HIT %:     99.786  MISS %:   0.214019   MPKI: 0.00426
PSCL2 TRANSLATION FROM L1D PREFETCHER ACCESS:          2  HIT:          2  MISS:          0  HIT %:        100  MISS %:          0   MPKI: 0
PSCL2 PREFETCH  REQUESTED:          0  ISSUED:          0  USEFUL:          0  USELESS:          0
PSCL2 USEFUL LOAD PREFETCHES:          0 PREFETCH ISSUED TO LOWER LEVEL:          0  ACCURACY: -nan
PSCL2 TIMELY PREFETCHES:          0 LATE PREFETCHES: 0 DROPPED PREFETCHES: 0
PSCL2 PREFETCHES SAME FILL-ORIGIN LEVEL: 0 DIFFERENT FILL-ORIGIN LEVEL: 0

LLC TOTAL     ACCESS:    7008477  HIT:     492942  MISS:    6515535  HIT %:    7.03351  MISS %:    92.9665   MPKI: 32.5777
LLC LOAD      ACCESS:    1284395  HIT:       1951  MISS:    1282444  HIT %:     0.1519  MISS %:    99.8481   MPKI: 6.41222
LLC RFO       ACCESS:     633173  HIT:       1705  MISS:     631468  HIT %:   0.269279  MISS %:    99.7307   MPKI: 3.15734
LLC PREFETCH  ACCESS:    3771580  HIT:      10964  MISS:    3760616  HIT %:     0.2907  MISS %:    99.7093   MPKI: 18.8031
LLC WRITEBACK ACCESS:    1268802  HIT:     478011  MISS:     790791  HIT %:    37.6742  MISS %:    62.3258   MPKI: 3.95396
LLC LOAD TRANSLATION ACCESS:      50520  HIT:        311  MISS:      50209  HIT %:   0.615598  MISS %:    99.3844   MPKI: 0.251045
LLC TRANSLATION FROM L1D PREFETCHER ACCESS:          7  HIT:          0  MISS:          7  HIT %:          0  MISS %:        100   MPKI: 3.5e-05
LLC PREFETCH  REQUESTED:          0  ISSUED:          0  USEFUL:       7892  USELESS:   15136014
LLC USEFUL LOAD PREFETCHES:       7892 PREFETCH ISSUED TO LOWER LEVEL:   15114546  ACCURACY: 0.0522146
LLC TIMELY PREFETCHES:       7892 LATE PREFETCHES: 0 DROPPED PREFETCHES: 0
LLC PREFETCHES SAME FILL-ORIGIN LEVEL: 0 DIFFERENT FILL-ORIGIN LEVEL: 0
LLC AVERAGE MISS LATENCY: 2743.77 cycles
LLC RQ	ACCESS:    7957728	FORWARD:          0	MERGED:          0	TO_CACHE:    7957728
LLC WQ	ACCESS:    5151802	FORWARD:          0	MERGED:          0	TO_CACHE:    5151802
LLC PQ	ACCESS:   15109522	FORWARD:          0	MERGED:          0	TO_CACHE:   15109522

LLC Dense regions hint to LLC: 0

RAW hits: 2349582
Loads Generated: 63784066
Loads sent to L1D: 61434484
Stores Generated: 24499068
Stores sent to L1D: 24499055
Major fault: 0 Minor fault: 94135
Allocated PAGES: 375745
=== CPU 0 L1D Prefetcher Statistics ===
[MLOP] History of tracked zone:
IIIIIIIIIIIIIIIIIIIIIIIIIIIIIIIIIIIIIIIIIIIIIIIIIIIIIIIIIIIIIIII
IIIIIIIIA1IIIIIIIIIIIIIIIIIIIIIIIIIIIIII12IIIIIIIIIIIIIIIIIIIIII
IIIIIIIIAA1IIIIIIIIIIIIIIIIIIIIIIIIIIIII112IIIIIIIIIIIIIIIIIIIII
IIIIIIIIAAA1IIIIIIIIIIIIIIIIIIIIIIIIIIII1112IIIIIIIIIIIIIIIIIIII
IIIIIIIIAAA1IIIIIIIIIIIIIIIIIIIIIIIIIIIIA112IIIIIIIIIIIIIIIIIIII
IIIIIIIIAAA1IIIIIIIIIIIIIIIIIIIIIIIIIIIIAA12IIIIIIIIIIIIIIIIIIII
IIIIIIIIAAA1IIIIIIIIIIIIIIIIIIIIIIIIIIIIAAA1IIIIIIIIIIIIIIIIIIII
AII2IIIIIIIIIIIIIIIIIIIIIIIIIIII2IIIIIIIIIIIIIIIIIIIIIIIIIIIIIII
AII2IIIIIIIIIIIAII2IIIIIIIIIIIII2IIIIIIIIIIIIII2IIIIIIIIIIIIIIII
AII2IIIIIIIIIIAAI22IIIIIIIIIIIII2IIIIIIIIIIIII22IIIIIIIIIIIIIIII
AII2IIIIIIIIIIAAI22IIIIIIIIIIIIIAII2IIIIIIIIII22IIIIIIIIIIIIIIII
AII2IIIIIIIIIIAAI22IIIIIIIIIIIIIAII2IIIIIIIIII2AII2IIIIIIIIIIIII
AII2IIIIIIIIIIAAI22IIIIIIIIIIIIIAII2IIIIIIIIIIAAI22IIIIIIIIIIIII
IIIIIIA1IIIIIIIIIIIIIIIIIIIIIIIIIIIIII12IIIIIIIIIIIIIIIIIIIIIIII
IIIIIIAA1IIIIIIIIIIIIIIIIIIIIIIIIIIIII112IIIIIIIIIIIIIIIIIIIIIII
IIIIIIAAA1IIIIIIIIIIIIIIIIIIIIIIIIIIII1112IIIIIIIIIIIIIIIIIIIIII
IIIIIIAAA1IIIIIIIIIIIIIIIIIIIIIIIIIIIIA112IIIIIIIIIIIIIIIIIIIIII
IIIIIIAAA1IIIIIIIIIIIIIIIIIIIIIIIIIIIIAA12IIIIIIIIIIIIIIIIIIIIII
IIIIIIAAA1IIIIIIIIIIIIIIIIIIIIIIIIIIIIAAA1IIIIIIIIIIIIIIIIIIIIII
IIA1IIIIIIIIIIIIIIIIIIIIIIIIIIIIII2IIIIIIIIIIIIIIIIIIIIIIIIIIIII
IIAA1IIIIIIIIIIIIIIIIIIIIIIIIIIIII22IIIIIIIIIIIIIIIIIIIIIIIIIIII
IIAA1IIIIIIIIIIIIIIIIIIIIIIIIIIIIIA1IIIIIIIIIIIIIIIIIIIIIIIIIIII
IIAAA1IIIIIIIIIIIIIIIIIIIIIIIIIIIIA12IIIIIIIIIIIIIIIIIIIIIIIIIII
IIAAA1IIIIIIIIIIIIIIIIIIIIIIIIIIIIAA1IIIIIIIIIIIIIIIIIIIIIIIIIII
IIAAA1IIIIIIIIIIIIIIIIIIIIIIIIIIIIAAA1IIIIIIIIIIIIIIIIIIIIIIIIII
AII22IIIIIIIIIIIIIIIIIIIIIIIIIII1IIIIIIIIIIIIIIIIIIIIIIIIIIIIIII
AII22IIIIIIIAII22IIIIIIIIIIIIIII1IIIIIIIIIII1IIIIIIIIIIIIIIIIIII
AII22IIIIIIAAI222IIIIIIIIIIIIIII1IIIIIIIIII11IIIIIIIIIIIIIIIIIII
AII22IIIIIIAAI222IIIIIIIIIIIIIII1IIIIIIIIIIA1I22IIIIIIIIIIIIIIII
AII22IIIIIIAAI222IIIIIIIIIIIIIIIAII22IIIIIIA1I22IIIIIIIIIIIIIIII
AII22IIIIIIAAI222IIIIIIIIIIIIIIIAII22IIIIIIAAI222IIIIIIIIIIIIIII
IIIIIIIIA1IIIIIIIIIIIIIIIIIIIIIIIIIIIIII1IIIIIIIIIIIIIIIIIIIIIII
IIIIIIIIAA1IIIIIIIIIIIIIIIIIIIIIIIIIIIII11IIIIIIIIIIIIIIIIIIIIII
IIIIIIIIAAA1IIIIIIIIIIIIIIIIIIIIIIIIIIII111IIIIIIIIIIIIIIIIIIIII
IIIIIIIIAAA1IIIIIIIIIIIIIIIIIIIIIIIIIIII1A1IIIIIIIIIIIIIIIIIIIII
IIIIIIIIAAA1IIIIIIIIIIIIIIIIIIIIIIIIIIIIAA1IIIIIIIIIIIIIIIIIIIII
IIIIIIIIAAA1IIIIIIIIIIIIIIIIIIIIIIIIIIIIAAA1IIIIIIIIIIIIIIIIIIII
[MLOP] Prefetch Degree Mean: 2.72747
[MLOP] Prefetch Degree SD: 1.91047
[MLOP] Max Score Left Mean (%): 14.408
[MLOP] Max Score Left SD (%): 21.1558
[MLOP] Max Score Right Mean (%): 69.0673
[MLOP] Max Score Right SD (%): 10.5492
=== CPU 1 L1D Prefetcher Statistics ===
[MLOP] History of tracked zone:
IIIIIIIIIIIIIIIIIIIIIIIIIIIIIIIIIIIIIIIIIIIIIIIIIIIIIIIIIIIIIIII
IIIIIIIIA1IIIIIIIIIIIIIIIIIIIIIIIIIIIIII12IIIIIIIIIIIIIIIIIIIIII
IIIIIIIIAA1IIIIIIIIIIIIIIIIIIIIIIIIIIIII112IIIIIIIIIIIIIIIIIIIII
IIIIIIIIAAA1IIIIIIIIIIIIIIIIIIIIIIIIIIII1112IIIIIIIIIIIIIIIIIIII
IIIIIIIIAAA1IIIIIIIIIIIIIIIIIIIIIIIIIIIIA112IIIIIIIIIIIIIIIIIIII
IIIIIIIIAAA1IIIIIIIIIIIIIIIIIIIIIIIIIIIIAA12IIIIIIIIIIIIIIIIIIII
IIIIIIIIAAA1IIIIIIIIIIIIIIIIIIIIIIIIIIIIAAA1IIIIIIIIIIIIIIIIIIII
AIIIIIIIIIIIIIIIIIIIIIIIIIIIIIII1IIIIIIIIIIIIIIIIIIIIIIIIIIIIIII
AIIIIIIIIIIIIIIAIIIIIIIIIIIIIIII1IIIIIIIIIIIIII1IIIIIIIIIIIIIIII
AIIIIIIIIIIIIIAAIIIIIIIIIIIIIIII1IIIIIIIIIIIII11IIIIIIIIIIIIIIII
AIIIIIIIIIIIIIAAIIIIIIIIIIIIIIIIAIIIIIIIIIIIII11IIIIIIIIIIIIIIII
AIIIIIIIIIIIIIAAIIIIIIIIIIIIIIIIAIIIIIIIIIIIII1AIIIIIIIIIIIIIIII
AIIIIIIIIIIIIIAAIIIIIIIIIIIIIIIIAIIIIIIIIIIIIIAAIIIIIIIIIIIIIIII
IIIIIIA1IIIIIIIIIIIIIIIIIIIIIIIIIIIIII2IIIIIIIIIIIIIIIIIIIIIIIII
IIIIIIAA1IIIIIIIIIIIIIIIIIIIIIIIIIIIII22IIIIIIIIIIIIIIIIIIIIIIII
IIIIIIAAA1IIIIIIIIIIIIIIIIIIIIIIIIIIII222IIIIIIIIIIIIIIIIIIIIIII
IIIIIIAAA1IIIIIIIIIIIIIIIIIIIIIIIIIIIIA12IIIIIIIIIIIIIIIIIIIIIII
IIIIIIAAA1IIIIIIIIIIIIIIIIIIIIIIIIIIIIAA1IIIIIIIIIIIIIIIIIIIIIII
IIIIIIAAA1IIIIIIIIIIIIIIIIIIIIIIIIIIIIAAA1IIIIIIIIIIIIIIIIIIIIII
IIA1IIIIIIIIIIIIIIIIIIIIIIIIIIIIII2IIIIIIIIIIIIIIIIIIIIIIIIIIIII
IIAA1IIIIIIIIIIIIIIIIIIIIIIIIIIIII22IIIIIIIIIIIIIIIIIIIIIIIIIIII
IIAA1IIIIIIIIIIIIIIIIIIIIIIIIIIIIIA1IIIIIIIIIIIIIIIIIIIIIIIIIIII
IIAAA1IIIIIIIIIIIIIIIIIIIIIIIIIIIIA12IIIIIIIIIIIIIIIIIIIIIIIIIII
IIAAA1IIIIIIIIIIIIIIIIIIIIIIIIIIIIAA1IIIIIIIIIIIIIIIIIIIIIIIIIII
IIAAA1IIIIIIIIIIIIIIIIIIIIIIIIIIIIAAA1IIIIIIIIIIIIIIIIIIIIIIIIII
AIIIIIIIIIIIIIIIIIIIIIIIIIIIIIII1IIIIIIIIIIIIIIIIIIIIIIIIIIIIIII
AIIIIIIIIIIIAIIIIIIIIIIIIIIIIIII1IIIIIIIIIII1IIIIIIIIIIIIIIIIIII
AIIIIIIIIIIAAIIIIIIIIIIIIIIIIIII1IIIIIIIIII11IIIIIIIIIIIIIIIIIII
AIIIIIIIIIIAAIIIIIIIIIIIIIIIIIII1IIIIIIIIIIA1IIIIIIIIIIIIIIIIIII
AIIIIIIIIIIAAIIIIIIIIIIIIIIIIIIIAIIIIIIIIIIA1IIIIIIIIIIIIIIIIIII
AIIIIIIIIIIAAIIIIIIIIIIIIIIIIIIIAIIIIIIIIIIAAIIIIIIIIIIIIIIIIIII
IIIIIIIIA11IIIIIIIIIIIIIIIIIIIIIIIIIIIII2IIIIIIIIIIIIIIIIIIIIIII
IIIIIIIIAA11IIIIIIIIIIIIIIIIIIIIIIIIIIII22IIIIIIIIIIIIIIIIIIIIII
IIIIIIIIAAA11IIIIIIIIIIIIIIIIIIIIIIIIIII222IIIIIIIIIIIIIIIIIIIII
IIIIIIIIAAA11IIIIIIIIIIIIIIIIIIIIIIIIIII2A11IIIIIIIIIIIIIIIIIIII
IIIIIIIIAAA11IIIIIIIIIIIIIIIIIIIIIIIIIIIAA11IIIIIIIIIIIIIIIIIIII
IIIIIIIIAAA11IIIIIIIIIIIIIIIIIIIIIIIIIIIAAA11IIIIIIIIIIIIIIIIIII
[MLOP] Prefetch Degree Mean: 2.76494
[MLOP] Prefetch Degree SD: 1.98902
[MLOP] Max Score Left Mean (%): 14.9208
[MLOP] Max Score Left SD (%): 21.6032
[MLOP] Max Score Right Mean (%): 69.2563
[MLOP] Max Score Right SD (%): 10.6592
=== CPU 2 L1D Prefetcher Statistics ===
[MLOP] History of tracked zone:
IIIIIIIIIIIIIIIIIIIIIIIIIIIIIIIIIIIIIIIIIIIIIIIIIIIIIIIIIIIIIIII
IIIIIIIIA1IIIIIIIIIIIIIIIIIIIIIIIIIIIIII12IIIIIIIIIIIIIIIIIIIIII
IIIIIIIIAA1IIIIIIIIIIIIIIIIIIIIIIIIIIIII112IIIIIIIIIIIIIIIIIIIII
IIIIIIIIAAA1IIIIIIIIIIIIIIIIIIIIIIIIIIII1112IIIIIIIIIIIIIIIIIIII
IIIIIIIIAAA1IIIIIIIIIIIIIIIIIIIIIIIIIIIIA112IIIIIIIIIIIIIIIIIIII
IIIIIIIIAAA1IIIIIIIIIIIIIIIIIIIIIIIIIIIIAA12IIIIIIIIIIIIIIIIIIII
IIIIIIIIAAA1IIIIIIIIIIIIIIIIIIIIIIIIIIIIAAA1IIIIIIIIIIIIIIIIIIII
AI11IIIIIIIIII1IIIIIIIIIIIIIIIIIIIIIIIIIIIIIIIIIIIIIIIIIIIIIIIII
AI11IIIIIIIIII1AI11IIIIIIIIII1IIIIIIIIIIIIIIIIIIIIIIIIIIIIIIIIII
AI11IIIIIIIIIIAA111IIIIIIIII11IIIIIIIIIIIIIIIIIIIIIIIIIIIIIIIIII
AI11IIIIIIIIIIAA111IIIIIIIII11IIAI11IIIIIIIIII1IIIIIIIIIIIIIIIII
AI11IIIIIIIIIIAA111IIIIIIIII11IIAI11IIIIIIIIII1AI11IIIIIIIIII1II
AI11IIIIIIIIIIAA111IIIIIIIII11IIAI11IIIIIIIIIIAA111IIIIIIIII11II
IIIIIIA1IIIIIIIIIIIIIIIIIIIIIIIIIIIIII2IIIIIIIIIIIIIIIIIIIIIIIII
IIIIIIAA1IIIIIIIIIIIIIIIIIIIIIIIIIIIII22IIIIIIIIIIIIIIIIIIIIIIII
IIIIIIAAA1IIIIIIIIIIIIIIIIIIIIIIIIIIII222IIIIIIIIIIIIIIIIIIIIIII
IIIIIIAAA1IIIIIIIIIIIIIIIIIIIIIIIIIIIIA12IIIIIIIIIIIIIIIIIIIIIII
IIIIIIAAA1IIIIIIIIIIIIIIIIIIIIIIIIIIIIAA1IIIIIIIIIIIIIIIIIIIIIII
IIIIIIAAA1IIIIIIIIIIIIIIIIIIIIIIIIIIIIAAA1IIIIIIIIIIIIIIIIIIIIII
IIA1IIIIIIIIIIIIIIIIIIIIIIIIIIIIII2IIIIIIIIIIIIIIIIIIIIIIIIIIIII
IIAA1IIIIIIIIIIIIIIIIIIIIIIIIIIIII22IIIIIIIIIIIIIIIIIIIIIIIIIIII
IIAA1IIIIIIIIIIIIIIIIIIIIIIIIIIIIIA1IIIIIIIIIIIIIIIIIIIIIIIIIIII
IIAAA1IIIIIIIIIIIIIIIIIIIIIIIIIIIIA12IIIIIIIIIIIIIIIIIIIIIIIIIII
IIAAA1IIIIIIIIIIIIIIIIIIIIIIIIIIIIAA1IIIIIIIIIIIIIIIIIIIIIIIIIII
IIAAA1IIIIIIIIIIIIIIIIIIIIIIIIIIIIAAA1IIIIIIIIIIIIIIIIIIIIIIIIII
AIIIIIIIIIIIIIIIIIIIIIIIIIIIIIII1IIIIIIIIIIIIIIIIIIIIIIIIIIIIIII
AIIIIIIIIIIIAIIIIIIIIIIIIIIIIIII1IIIIIIIIIII1IIIIIIIIIIIIIIIIIII
AIIIIIIIIIIAAIIIIIIIIIIIIIIIIIII1IIIIIIIIII11IIIIIIIIIIIIIIIIIII
AIIIIIIIIIIAAIIIIIIIIIIIIIIIIIII1IIIIIIIIIIA1IIIIIIIIIIIIIIIIIII
AIIIIIIIIIIAAIIIIIIIIIIIIIIIIIIIAIIIIIIIIIIA1IIIIIIIIIIIIIIIIIII
AIIIIIIIIIIAAIIIIIIIIIIIIIIIIIIIAIIIIIIIIIIAAIIIIIIIIIIIIIIIIIII
IIIIIIIIA1IIIIIIIIIIIIIIIIIIIIIIIIIIIIII1IIIIIIIIIIIIIIIIIIIIIII
IIIIIIIIAA1IIIIIIIIIIIIIIIIIIIIIIIIIIIII11IIIIIIIIIIIIIIIIIIIIII
IIIIIIIIAAA1IIIIIIIIIIIIIIIIIIIIIIIIIIII111IIIIIIIIIIIIIIIIIIIII
IIIIIIIIAAA1IIIIIIIIIIIIIIIIIIIIIIIIIIII1A1IIIIIIIIIIIIIIIIIIIII
IIIIIIIIAAA1IIIIIIIIIIIIIIIIIIIIIIIIIIIIAA1IIIIIIIIIIIIIIIIIIIII
IIIIIIIIAAA1IIIIIIIIIIIIIIIIIIIIIIIIIIIIAAA1IIIIIIIIIIIIIIIIIIII
[MLOP] Prefetch Degree Mean: 2.75583
[MLOP] Prefetch Degree SD: 1.95377
[MLOP] Max Score Left Mean (%): 14.4812
[MLOP] Max Score Left SD (%): 21.2184
[MLOP] Max Score Right Mean (%): 69.1996
[MLOP] Max Score Right SD (%): 10.61
=== CPU 3 L1D Prefetcher Statistics ===
[MLOP] History of tracked zone:
IIIIIIIIIIIIIIIIIIIIIIIIIIIIIIIIIIIIIIIIIIIIIIIIIIIIIIIIIIIIIIII
IIIIIIIIA1IIIIIIIIIIIIIIIIIIIIIIIIIIIIII12IIIIIIIIIIIIIIIIIIIIII
IIIIIIIIAA1IIIIIIIIIIIIIIIIIIIIIIIIIIIII112IIIIIIIIIIIIIIIIIIIII
IIIIIIIIAAA1IIIIIIIIIIIIIIIIIIIIIIIIIIII1112IIIIIIIIIIIIIIIIIIII
IIIIIIIIAAA1IIIIIIIIIIIIIIIIIIIIIIIIIIIIA112IIIIIIIIIIIIIIIIIIII
IIIIIIIIAAA1IIIIIIIIIIIIIIIIIIIIIIIIIIIIAA12IIIIIIIIIIIIIIIIIIII
IIIIIIIIAAA1IIIIIIIIIIIIIIIIIIIIIIIIIIIIAAA1IIIIIIIIIIIIIIIIIIII
AII2IIIIIIIIIIIIIIIIIIIIIIIIIIII1IIIIIIIIIIIIIIIIIIIIIIIIIIIIIII
AII2IIIIIIIIIIIAII2IIIIIIIIIIIII1IIIIIIIIIIIIII1IIIIIIIIIIIIIIII
AII2IIIIIIIIIIAAI22IIIIIIIIIIIII1IIIIIIIIIIIII11IIIIIIIIIIIIIIII
AII2IIIIIIIIIIAAI22IIIIIIIIIIIIIAII2IIIIIIIIII11IIIIIIIIIIIIIIII
AII2IIIIIIIIIIAAI22IIIIIIIIIIIIIAII2IIIIIIIIII1AII2IIIIIIIIIIIII
AII2IIIIIIIIIIAAI22IIIIIIIIIIIIIAII2IIIIIIIIIIAAI22IIIIIIIIIIIII
IIIIIIA1IIIIIIIIIIIIIIIIIIIIIIIIIIIIII2IIIIIIIIIIIIIIIIIIIIIIIII
IIIIIIAA1IIIIIIIIIIIIIIIIIIIIIIIIIIIII22IIIIIIIIIIIIIIIIIIIIIIII
IIIIIIAAA1IIIIIIIIIIIIIIIIIIIIIIIIIIII222IIIIIIIIIIIIIIIIIIIIIII
IIIIIIAAA1IIIIIIIIIIIIIIIIIIIIIIIIIIIIA12IIIIIIIIIIIIIIIIIIIIIII
IIIIIIAAA1IIIIIIIIIIIIIIIIIIIIIIIIIIIIAA1IIIIIIIIIIIIIIIIIIIIIII
IIIIIIAAA1IIIIIIIIIIIIIIIIIIIIIIIIIIIIAAA1IIIIIIIIIIIIIIIIIIIIII
IIA1IIIIIIIIIIIIIIIIIIIIIIIIIIIIII2IIIIIIIIIIIIIIIIIIIIIIIIIIIII
IIAA1IIIIIIIIIIIIIIIIIIIIIIIIIIIII22IIIIIIIIIIIIIIIIIIIIIIIIIIII
IIAA1IIIIIIIIIIIIIIIIIIIIIIIIIIIIIA1IIIIIIIIIIIIIIIIIIIIIIIIIIII
IIAAA1IIIIIIIIIIIIIIIIIIIIIIIIIIIIA12IIIIIIIIIIIIIIIIIIIIIIIIIII
IIAAA1IIIIIIIIIIIIIIIIIIIIIIIIIIIIAA1IIIIIIIIIIIIIIIIIIIIIIIIIII
IIAAA1IIIIIIIIIIIIIIIIIIIIIIIIIIIIAAA1IIIIIIIIIIIIIIIIIIIIIIIIII
A1122IIIIIII1IIIIIIIIIIIIIIIIIIIIIIIIIIIIIIIIIIIIIIIIIIIIIIIIIII
A1122IIIIIIIA1122IIIIIII1IIIIIIIIIIIIIIIIIIIIIIIIIIIIIIIIIIIIIII
A1122IIIIIIAA1122IIIIIII1IIIIIIIIIIIIIIIIIIIIIIIIIIIIIIIIIIIIIII
A1122IIIIIIAA1122IIIIIII1IIIIIIIIIIIIIIIIIIA1122IIIIIII1IIIIIIII
A1122IIIIIIAA1122IIIIIII1IIIIIIIA1122IIIIIIA1122IIIIIII1IIIIIIII
A1122IIIIIIAA1122IIIIIII1IIIIIIIA1122IIIIIIAA1122IIIIII11IIIIIII
IIIIIIIIA1IIIIIIIIIIIIIIIIIIIIIIIIIIIIII1IIIIIIIIIIIIIIIIIIIIIII
IIIIIIIIAA1IIIIIIIIIIIIIIIIIIIIIIIIIIIII11IIIIIIIIIIIIIIIIIIIIII
IIIIIIIIAAA1IIIIIIIIIIIIIIIIIIIIIIIIIIII111IIIIIIIIIIIIIIIIIIIII
IIIIIIIIAAA1IIIIIIIIIIIIIIIIIIIIIIIIIIII1A1IIIIIIIIIIIIIIIIIIIII
IIIIIIIIAAA1IIIIIIIIIIIIIIIIIIIIIIIIIIIIAA1IIIIIIIIIIIIIIIIIIIII
IIIIIIIIAAA1IIIIIIIIIIIIIIIIIIIIIIIIIIIIAAA1IIIIIIIIIIIIIIIIIIII
[MLOP] Prefetch Degree Mean: 2.7895
[MLOP] Prefetch Degree SD: 2.04044
[MLOP] Max Score Left Mean (%): 14.9891
[MLOP] Max Score Left SD (%): 21.5617
[MLOP] Max Score Right Mean (%): 69.1825
[MLOP] Max Score Right SD (%): 10.7788

DRAM Statistics
 CHANNEL 0
 RQ ROW_BUFFER_HIT:    8882435  ROW_BUFFER_MISS:   14142480
 DBUS_CONGESTED:          1
 WQ ROW_BUFFER_HIT:     564107  ROW_BUFFER_MISS:    4513796  FULL:      29498

 AVG_CONGESTED_CYCLE: 7
 All warmup complete: 5
Channel 0 Bank busy for read cycles: 0
Channel 0 Bank busy for write cycles: 0
Channel 0
Rank 0
0banks busy for read cycles: 30724
0banks busy for write cycles: 36
1banks busy for read cycles: 3661602
1banks busy for write cycles: 2526874
2banks busy for read cycles: 11203422
2banks busy for write cycles: 143126712
3banks busy for read cycles: 47778455
3banks busy for write cycles: 5575798
4banks busy for read cycles: 133628993
4banks busy for write cycles: 2213801
5banks busy for read cycles: 120128015
5banks busy for write cycles: 1720573
6banks busy for read cycles: 70751999
6banks busy for write cycles: 2419112
7banks busy for read cycles: 48574104
7banks busy for write cycles: 10283957
8banks busy for read cycles: 82685616
8banks busy for write cycles: 61212074

CPU 0 Branch Prediction Accuracy: 99.9994% MPKI: 0.000399995 Average ROB Occupancy at Mispredict: 68
Branch types
NOT_BRANCH: 186439135 93.2196%
BRANCH_DIRECT_JUMP: 160010 0.080005%
BRANCH_INDIRECT: 0 0%
BRANCH_CONDITIONAL: 10041855 5.02093%
BRANCH_DIRECT_CALL: 1679615 0.839807%
BRANCH_INDIRECT_CALL: 0 0%
BRANCH_RETURN: 1679616 0.839808%
BRANCH_OTHER: 0 0%


CPU 1 Branch Prediction Accuracy: 99.9994% MPKI: 0.000399076 Average ROB Occupancy at Mispredict: 67.0875
Branch types
NOT_BRANCH: 186877592 93.2229%
BRANCH_DIRECT_JUMP: 160010 0.0798202%
BRANCH_INDIRECT: 0 0%
BRANCH_CONDITIONAL: 10066233 5.02149%
BRANCH_DIRECT_CALL: 1679636 0.837878%
BRANCH_INDIRECT_CALL: 0 0%
BRANCH_RETURN: 1679637 0.837878%
BRANCH_OTHER: 0 0%


CPU 2 Branch Prediction Accuracy: 99.9994% MPKI: 0.000399438 Average ROB Occupancy at Mispredict: 69.2625
Branch types
NOT_BRANCH: 186705033 93.2217%
BRANCH_DIRECT_JUMP: 160010 0.0798929%
BRANCH_INDIRECT: 0 0%
BRANCH_CONDITIONAL: 10056642 5.02128%
BRANCH_DIRECT_CALL: 1679632 0.838639%
BRANCH_INDIRECT_CALL: 0 0%
BRANCH_RETURN: 1679633 0.83864%
BRANCH_OTHER: 0 0%


CPU 3 Branch Prediction Accuracy: 99.9994% MPKI: 0.000405159 Average ROB Occupancy at Mispredict: 70.0854
Branch types
NOT_BRANCH: 188636964 93.2052%
BRANCH_DIRECT_JUMP: 160013 0.0790621%
BRANCH_INDIRECT: 0 0%
BRANCH_CONDITIONAL: 10233075 5.05614%
BRANCH_DIRECT_CALL: 1679639 0.829906%
BRANCH_INDIRECT_CALL: 0 0%
BRANCH_RETURN: 1679638 0.829906%
BRANCH_OTHER: 0 0%

DRAM PAGES: 1048576
Allocated PAGES: 375745
