
*** ChampSim Multicore Out-of-Order Simulator ***

Warmup Instructions: 50000000
Simulation Instructions: 200000000
Number of CPUs: 4
LLC sets: 8192
LLC ways: 16
Off-chip DRAM Size: 4096 MB Channels: 1 Width: 64-bit Data Rate: 6400 MT/s
CPU 0 runs ./traces/ligra/ligra_BFSCC.com-lj.ungraph.gcc_6.3.0_O3.drop_750M.length_250M.champsimtrace.xz
.xz
CPU 1 runs ./traces/ligra/ligra_BFSCC.com-lj.ungraph.gcc_6.3.0_O3.drop_750M.length_250M.champsimtrace.xz
.xz
CPU 2 runs ./traces/ligra/ligra_BFSCC.com-lj.ungraph.gcc_6.3.0_O3.drop_750M.length_250M.champsimtrace.xz
.xz
CPU 3 runs ./traces/ligra/ligra_BFSCC.com-lj.ungraph.gcc_6.3.0_O3.drop_750M.length_250M.champsimtrace.xz
.xz
BTB has LRU replacement policy
ITLB has LRU replacement policy
DTLB has LRU replacement policy
STLB has LRU replacement policy
L1I has LRU replacement policy
History Sets: 8
History Ways: 16
BERTI Size: 16
BERTI Stride Size: 8
L1D has LRU replacement policy
Initialize SRRIP state for L2C
Initialize DRRIP state for LLC
BTB has LRU replacement policy
ITLB has LRU replacement policy
DTLB has LRU replacement policy
STLB has LRU replacement policy
L1I has LRU replacement policy
History Sets: 8
History Ways: 16
BERTI Size: 16
BERTI Stride Size: 8
L1D has LRU replacement policy
Initialize SRRIP state for L2C
Initialize DRRIP state for LLC
BTB has LRU replacement policy
ITLB has LRU replacement policy
DTLB has LRU replacement policy
STLB has LRU replacement policy
L1I has LRU replacement policy
History Sets: 8
History Ways: 16
BERTI Size: 16
BERTI Stride Size: 8
L1D has LRU replacement policy
Initialize SRRIP state for L2C
Initialize DRRIP state for LLC
BTB has LRU replacement policy
ITLB has LRU replacement policy
DTLB has LRU replacement policy
STLB has LRU replacement policy
L1I has LRU replacement policy
History Sets: 8
History Ways: 16
BERTI Size: 16
BERTI Stride Size: 8
L1D has LRU replacement policy
Initialize SRRIP state for L2C
Initialize DRRIP state for LLC
Heartbeat CPU 0 instructions: 10000001 cycles: 3333345 heartbeat IPC: 2.99999 cumulative IPC: 2.99999 (Simulation time: 0 hr 1 min 44 sec) 
Heartbeat CPU 1 instructions: 10000001 cycles: 3333346 heartbeat IPC: 2.99999 cumulative IPC: 2.99999 (Simulation time: 0 hr 1 min 44 sec) 
Heartbeat CPU 2 instructions: 10000001 cycles: 3333347 heartbeat IPC: 2.99999 cumulative IPC: 2.99999 (Simulation time: 0 hr 1 min 44 sec) 
Heartbeat CPU 3 instructions: 10000001 cycles: 3333348 heartbeat IPC: 2.99999 cumulative IPC: 2.99999 (Simulation time: 0 hr 1 min 44 sec) 
Heartbeat CPU 0 instructions: 20000002 cycles: 6666678 heartbeat IPC: 3 cumulative IPC: 3 (Simulation time: 0 hr 3 min 25 sec) 
Heartbeat CPU 1 instructions: 20000002 cycles: 6666679 heartbeat IPC: 3 cumulative IPC: 2.99999 (Simulation time: 0 hr 3 min 25 sec) 
Heartbeat CPU 2 instructions: 20000002 cycles: 6666680 heartbeat IPC: 3 cumulative IPC: 2.99999 (Simulation time: 0 hr 3 min 25 sec) 
Heartbeat CPU 3 instructions: 20000002 cycles: 6666681 heartbeat IPC: 3 cumulative IPC: 2.99999 (Simulation time: 0 hr 3 min 25 sec) 
Heartbeat CPU 0 instructions: 30000000 cycles: 10000012 heartbeat IPC: 3 cumulative IPC: 3 (Simulation time: 0 hr 5 min 4 sec) 
Heartbeat CPU 1 instructions: 30000000 cycles: 10000013 heartbeat IPC: 3 cumulative IPC: 3 (Simulation time: 0 hr 5 min 4 sec) 
Heartbeat CPU 2 instructions: 30000000 cycles: 10000014 heartbeat IPC: 3 cumulative IPC: 3 (Simulation time: 0 hr 5 min 4 sec) 
Heartbeat CPU 3 instructions: 30000000 cycles: 10000015 heartbeat IPC: 3 cumulative IPC: 3 (Simulation time: 0 hr 5 min 4 sec) 
Heartbeat CPU 0 instructions: 40000002 cycles: 13333345 heartbeat IPC: 3 cumulative IPC: 3 (Simulation time: 0 hr 6 min 41 sec) 
Heartbeat CPU 1 instructions: 40000002 cycles: 13333346 heartbeat IPC: 3 cumulative IPC: 3 (Simulation time: 0 hr 6 min 41 sec) 
Heartbeat CPU 2 instructions: 40000002 cycles: 13333347 heartbeat IPC: 3 cumulative IPC: 3 (Simulation time: 0 hr 6 min 41 sec) 
Heartbeat CPU 3 instructions: 40000002 cycles: 13333348 heartbeat IPC: 3 cumulative IPC: 3 (Simulation time: 0 hr 6 min 41 sec) 
Heartbeat CPU 0 instructions: 50000000 cycles: 16666678 heartbeat IPC: 3 cumulative IPC: 3 (Simulation time: 0 hr 8 min 19 sec) 
Heartbeat CPU 1 instructions: 50000000 cycles: 16666679 heartbeat IPC: 3 cumulative IPC: 3 (Simulation time: 0 hr 8 min 19 sec) 
Heartbeat CPU 2 instructions: 50000000 cycles: 16666680 heartbeat IPC: 3 cumulative IPC: 3 (Simulation time: 0 hr 8 min 19 sec) 
Heartbeat CPU 3 instructions: 50000000 cycles: 16666681 heartbeat IPC: 3 cumulative IPC: 3 (Simulation time: 0 hr 8 min 19 sec) 

Warmup complete CPU 0 instructions: 50000013 cycles: 16666682 (Simulation time: 0 hr 8 min 19 sec) 
Warmup complete CPU 1 instructions: 50000010 cycles: 16666682 (Simulation time: 0 hr 8 min 19 sec) 
Warmup complete CPU 2 instructions: 50000007 cycles: 16666682 (Simulation time: 0 hr 8 min 19 sec) 
Warmup complete CPU 3 instructions: 50000004 cycles: 16666682 (Simulation time: 0 hr 8 min 19 sec) 

Heartbeat CPU 0 instructions: 60000003 cycles: 25204650 heartbeat IPC: 1.17124 cumulative IPC: 1.17124 (Simulation time: 0 hr 11 min 17 sec) 
Heartbeat CPU 1 instructions: 60000003 cycles: 25205879 heartbeat IPC: 1.17107 cumulative IPC: 1.17107 (Simulation time: 0 hr 11 min 17 sec) 
Heartbeat CPU 3 instructions: 60000003 cycles: 25206380 heartbeat IPC: 1.171 cumulative IPC: 1.171 (Simulation time: 0 hr 11 min 17 sec) 
Heartbeat CPU 2 instructions: 60000003 cycles: 25210390 heartbeat IPC: 1.17045 cumulative IPC: 1.17045 (Simulation time: 0 hr 11 min 17 sec) 
Heartbeat CPU 0 instructions: 70000001 cycles: 33740740 heartbeat IPC: 1.1715 cumulative IPC: 1.17137 (Simulation time: 0 hr 14 min 15 sec) 
Heartbeat CPU 1 instructions: 70000001 cycles: 33742726 heartbeat IPC: 1.17139 cumulative IPC: 1.17123 (Simulation time: 0 hr 14 min 15 sec) 
Heartbeat CPU 3 instructions: 70000001 cycles: 33745351 heartbeat IPC: 1.1711 cumulative IPC: 1.17105 (Simulation time: 0 hr 14 min 15 sec) 
Heartbeat CPU 2 instructions: 70000001 cycles: 33749224 heartbeat IPC: 1.17112 cumulative IPC: 1.17079 (Simulation time: 0 hr 14 min 15 sec) 
Heartbeat CPU 0 instructions: 80000002 cycles: 42293924 heartbeat IPC: 1.16916 cumulative IPC: 1.17063 (Simulation time: 0 hr 17 min 11 sec) 
Heartbeat CPU 1 instructions: 80000002 cycles: 42296545 heartbeat IPC: 1.16907 cumulative IPC: 1.17051 (Simulation time: 0 hr 17 min 11 sec) 
Heartbeat CPU 3 instructions: 80000002 cycles: 42299188 heartbeat IPC: 1.16907 cumulative IPC: 1.17039 (Simulation time: 0 hr 17 min 11 sec) 
Heartbeat CPU 2 instructions: 80000002 cycles: 42302900 heartbeat IPC: 1.16909 cumulative IPC: 1.17022 (Simulation time: 0 hr 17 min 11 sec) 
Heartbeat CPU 0 instructions: 90000002 cycles: 50878128 heartbeat IPC: 1.16493 cumulative IPC: 1.1692 (Simulation time: 0 hr 20 min 6 sec) 
Heartbeat CPU 1 instructions: 90000002 cycles: 50881722 heartbeat IPC: 1.1648 cumulative IPC: 1.16908 (Simulation time: 0 hr 20 min 6 sec) 
Heartbeat CPU 3 instructions: 90000002 cycles: 50884591 heartbeat IPC: 1.16477 cumulative IPC: 1.16898 (Simulation time: 0 hr 20 min 6 sec) 
Heartbeat CPU 2 instructions: 90000002 cycles: 50888253 heartbeat IPC: 1.16477 cumulative IPC: 1.16885 (Simulation time: 0 hr 20 min 6 sec) 
Heartbeat CPU 0 instructions: 100000002 cycles: 59450514 heartbeat IPC: 1.16654 cumulative IPC: 1.16867 (Simulation time: 0 hr 23 min 9 sec) 
Heartbeat CPU 1 instructions: 100000002 cycles: 59454375 heartbeat IPC: 1.1665 cumulative IPC: 1.16856 (Simulation time: 0 hr 23 min 9 sec) 
Heartbeat CPU 3 instructions: 100000002 cycles: 59458121 heartbeat IPC: 1.16638 cumulative IPC: 1.16846 (Simulation time: 0 hr 23 min 9 sec) 
Heartbeat CPU 2 instructions: 100000002 cycles: 59467948 heartbeat IPC: 1.16554 cumulative IPC: 1.16819 (Simulation time: 0 hr 23 min 9 sec) 
Heartbeat CPU 0 instructions: 110000000 cycles: 68017986 heartbeat IPC: 1.16721 cumulative IPC: 1.16842 (Simulation time: 0 hr 26 min 16 sec) 
Heartbeat CPU 1 instructions: 110000000 cycles: 68022555 heartbeat IPC: 1.16711 cumulative IPC: 1.16832 (Simulation time: 0 hr 26 min 16 sec) 
Heartbeat CPU 3 instructions: 110000000 cycles: 68029262 heartbeat IPC: 1.16671 cumulative IPC: 1.16817 (Simulation time: 0 hr 26 min 16 sec) 
Heartbeat CPU 2 instructions: 110000000 cycles: 68036199 heartbeat IPC: 1.1671 cumulative IPC: 1.16801 (Simulation time: 0 hr 26 min 16 sec) 
Heartbeat CPU 0 instructions: 120000002 cycles: 76618778 heartbeat IPC: 1.16268 cumulative IPC: 1.1676 (Simulation time: 0 hr 29 min 23 sec) 
Heartbeat CPU 1 instructions: 120000002 cycles: 76623601 heartbeat IPC: 1.16265 cumulative IPC: 1.1675 (Simulation time: 0 hr 29 min 23 sec) 
Heartbeat CPU 3 instructions: 120000002 cycles: 76629557 heartbeat IPC: 1.16275 cumulative IPC: 1.16739 (Simulation time: 0 hr 29 min 23 sec) 
Heartbeat CPU 2 instructions: 120000002 cycles: 76635100 heartbeat IPC: 1.16294 cumulative IPC: 1.16728 (Simulation time: 0 hr 29 min 23 sec) 
Heartbeat CPU 0 instructions: 130000001 cycles: 85223588 heartbeat IPC: 1.16214 cumulative IPC: 1.16691 (Simulation time: 0 hr 32 min 22 sec) 
Heartbeat CPU 1 instructions: 130000001 cycles: 85228719 heartbeat IPC: 1.1621 cumulative IPC: 1.16683 (Simulation time: 0 hr 32 min 22 sec) 
Heartbeat CPU 3 instructions: 130000001 cycles: 85234452 heartbeat IPC: 1.16213 cumulative IPC: 1.16673 (Simulation time: 0 hr 32 min 22 sec) 
Heartbeat CPU 2 instructions: 130000001 cycles: 85241452 heartbeat IPC: 1.16193 cumulative IPC: 1.16661 (Simulation time: 0 hr 32 min 22 sec) 
Heartbeat CPU 0 instructions: 140000002 cycles: 93807903 heartbeat IPC: 1.16492 cumulative IPC: 1.16669 (Simulation time: 0 hr 35 min 34 sec) 
Heartbeat CPU 1 instructions: 140000002 cycles: 93813793 heartbeat IPC: 1.16481 cumulative IPC: 1.1666 (Simulation time: 0 hr 35 min 34 sec) 
Heartbeat CPU 3 instructions: 140000002 cycles: 93820151 heartbeat IPC: 1.16473 cumulative IPC: 1.16651 (Simulation time: 0 hr 35 min 34 sec) 
Heartbeat CPU 2 instructions: 140000002 cycles: 93825848 heartbeat IPC: 1.1649 cumulative IPC: 1.16642 (Simulation time: 0 hr 35 min 34 sec) 
Heartbeat CPU 0 instructions: 150000002 cycles: 102389866 heartbeat IPC: 1.16523 cumulative IPC: 1.16655 (Simulation time: 0 hr 38 min 25 sec) 
Heartbeat CPU 1 instructions: 150000002 cycles: 102396017 heartbeat IPC: 1.1652 cumulative IPC: 1.16646 (Simulation time: 0 hr 38 min 25 sec) 
Heartbeat CPU 3 instructions: 150000002 cycles: 102402409 heartbeat IPC: 1.16519 cumulative IPC: 1.16637 (Simulation time: 0 hr 38 min 25 sec) 
Heartbeat CPU 2 instructions: 150000002 cycles: 102408501 heartbeat IPC: 1.16514 cumulative IPC: 1.16629 (Simulation time: 0 hr 38 min 25 sec) 
Heartbeat CPU 0 instructions: 160000001 cycles: 110987026 heartbeat IPC: 1.16317 cumulative IPC: 1.16624 (Simulation time: 0 hr 41 min 34 sec) 
Heartbeat CPU 1 instructions: 160000001 cycles: 110991961 heartbeat IPC: 1.16334 cumulative IPC: 1.16618 (Simulation time: 0 hr 41 min 35 sec) 
Heartbeat CPU 3 instructions: 160000001 cycles: 110997922 heartbeat IPC: 1.1634 cumulative IPC: 1.1661 (Simulation time: 0 hr 41 min 35 sec) 
Heartbeat CPU 2 instructions: 160000001 cycles: 111004132 heartbeat IPC: 1.16338 cumulative IPC: 1.16603 (Simulation time: 0 hr 41 min 35 sec) 
Heartbeat CPU 0 instructions: 170000000 cycles: 119601496 heartbeat IPC: 1.16084 cumulative IPC: 1.16579 (Simulation time: 0 hr 44 min 41 sec) 
Heartbeat CPU 1 instructions: 170000000 cycles: 119608247 heartbeat IPC: 1.16059 cumulative IPC: 1.16571 (Simulation time: 0 hr 44 min 41 sec) 
Heartbeat CPU 3 instructions: 170000000 cycles: 119614348 heartbeat IPC: 1.16057 cumulative IPC: 1.16564 (Simulation time: 0 hr 44 min 41 sec) 
Heartbeat CPU 2 instructions: 170000000 cycles: 119619613 heartbeat IPC: 1.1607 cumulative IPC: 1.16558 (Simulation time: 0 hr 44 min 41 sec) 
Heartbeat CPU 0 instructions: 180000002 cycles: 128220773 heartbeat IPC: 1.16019 cumulative IPC: 1.16535 (Simulation time: 0 hr 47 min 52 sec) 
Heartbeat CPU 1 instructions: 180000002 cycles: 128226466 heartbeat IPC: 1.16033 cumulative IPC: 1.16529 (Simulation time: 0 hr 47 min 53 sec) 
Heartbeat CPU 3 instructions: 180000002 cycles: 128232324 heartbeat IPC: 1.16037 cumulative IPC: 1.16523 (Simulation time: 0 hr 47 min 53 sec) 
Heartbeat CPU 2 instructions: 180000002 cycles: 128237853 heartbeat IPC: 1.16033 cumulative IPC: 1.16518 (Simulation time: 0 hr 47 min 53 sec) 
Heartbeat CPU 0 instructions: 190000000 cycles: 136835217 heartbeat IPC: 1.16084 cumulative IPC: 1.16503 (Simulation time: 0 hr 51 min 4 sec) 
Heartbeat CPU 1 instructions: 190000000 cycles: 136842203 heartbeat IPC: 1.16067 cumulative IPC: 1.16496 (Simulation time: 0 hr 51 min 5 sec) 
Heartbeat CPU 3 instructions: 190000000 cycles: 136847644 heartbeat IPC: 1.16072 cumulative IPC: 1.16491 (Simulation time: 0 hr 51 min 5 sec) 
Heartbeat CPU 2 instructions: 190000000 cycles: 136853160 heartbeat IPC: 1.16072 cumulative IPC: 1.16486 (Simulation time: 0 hr 51 min 5 sec) 
Heartbeat CPU 0 instructions: 200000002 cycles: 145410302 heartbeat IPC: 1.16617 cumulative IPC: 1.16511 (Simulation time: 0 hr 54 min 2 sec) 
Heartbeat CPU 1 instructions: 200000002 cycles: 145414772 heartbeat IPC: 1.16651 cumulative IPC: 1.16507 (Simulation time: 0 hr 54 min 2 sec) 
Heartbeat CPU 3 instructions: 200000002 cycles: 145420422 heartbeat IPC: 1.16648 cumulative IPC: 1.16501 (Simulation time: 0 hr 54 min 3 sec) 
Heartbeat CPU 2 instructions: 200000002 cycles: 145427665 heartbeat IPC: 1.16625 cumulative IPC: 1.16495 (Simulation time: 0 hr 54 min 3 sec) 
Heartbeat CPU 0 instructions: 210000000 cycles: 153981124 heartbeat IPC: 1.16675 cumulative IPC: 1.16521 (Simulation time: 0 hr 56 min 56 sec) 
Heartbeat CPU 1 instructions: 210000000 cycles: 153986819 heartbeat IPC: 1.16658 cumulative IPC: 1.16516 (Simulation time: 0 hr 56 min 57 sec) 
Heartbeat CPU 3 instructions: 210000000 cycles: 153991927 heartbeat IPC: 1.16666 cumulative IPC: 1.16512 (Simulation time: 0 hr 56 min 57 sec) 
Heartbeat CPU 2 instructions: 210000000 cycles: 153999552 heartbeat IPC: 1.1666 cumulative IPC: 1.16505 (Simulation time: 0 hr 56 min 57 sec) 
Heartbeat CPU 0 instructions: 220000000 cycles: 162587977 heartbeat IPC: 1.16186 cumulative IPC: 1.16501 (Simulation time: 0 hr 59 min 53 sec) 
Heartbeat CPU 1 instructions: 220000000 cycles: 162593036 heartbeat IPC: 1.16195 cumulative IPC: 1.16497 (Simulation time: 0 hr 59 min 53 sec) 
Heartbeat CPU 3 instructions: 220000000 cycles: 162597962 heartbeat IPC: 1.16198 cumulative IPC: 1.16493 (Simulation time: 0 hr 59 min 53 sec) 
Heartbeat CPU 2 instructions: 220000000 cycles: 162603654 heartbeat IPC: 1.16224 cumulative IPC: 1.16489 (Simulation time: 0 hr 59 min 54 sec) 
Heartbeat CPU 0 instructions: 230000001 cycles: 171199941 heartbeat IPC: 1.16118 cumulative IPC: 1.1648 (Simulation time: 1 hr 2 min 58 sec) 
Heartbeat CPU 1 instructions: 230000001 cycles: 171205785 heartbeat IPC: 1.16107 cumulative IPC: 1.16475 (Simulation time: 1 hr 2 min 58 sec) 
Heartbeat CPU 3 instructions: 230000001 cycles: 171211376 heartbeat IPC: 1.16098 cumulative IPC: 1.16471 (Simulation time: 1 hr 2 min 58 sec) 
Heartbeat CPU 2 instructions: 230000001 cycles: 171217237 heartbeat IPC: 1.16096 cumulative IPC: 1.16467 (Simulation time: 1 hr 2 min 58 sec) 
Heartbeat CPU 0 instructions: 240000002 cycles: 179800850 heartbeat IPC: 1.16267 cumulative IPC: 1.16469 (Simulation time: 1 hr 6 min 4 sec) 
Heartbeat CPU 1 instructions: 240000002 cycles: 179806925 heartbeat IPC: 1.16264 cumulative IPC: 1.16464 (Simulation time: 1 hr 6 min 4 sec) 
Heartbeat CPU 3 instructions: 240000002 cycles: 179811637 heartbeat IPC: 1.16276 cumulative IPC: 1.16461 (Simulation time: 1 hr 6 min 4 sec) 
Heartbeat CPU 2 instructions: 240000002 cycles: 179818330 heartbeat IPC: 1.16264 cumulative IPC: 1.16456 (Simulation time: 1 hr 6 min 4 sec) 
*** Reached end of trace for Core: 0 Repeating trace: ./traces/ligra/ligra_BFSCC.com-lj.ungraph.gcc_6.3.0_O3.drop_750M.length_250M.champsimtrace.xz
Heartbeat CPU 0 instructions: 250000003 cycles: 188406383 heartbeat IPC: 1.16204 cumulative IPC: 1.16455 (Simulation time: 1 hr 8 min 59 sec) 
Finished CPU 0 instructions: 200000003 cycles: 171740142 cumulative IPC: 1.16455 (Simulation time: 1 hr 8 min 59 sec) 
*** Reached end of trace for Core: 1 Repeating trace: ./traces/ligra/ligra_BFSCC.com-lj.ungraph.gcc_6.3.0_O3.drop_750M.length_250M.champsimtrace.xz
Heartbeat CPU 1 instructions: 250000003 cycles: 188412141 heartbeat IPC: 1.16209 cumulative IPC: 1.16451 (Simulation time: 1 hr 9 min 0 sec) 
Finished CPU 1 instructions: 200000002 cycles: 171745899 cumulative IPC: 1.16451 (Simulation time: 1 hr 9 min 0 sec) 
*** Reached end of trace for Core: 3 Repeating trace: ./traces/ligra/ligra_BFSCC.com-lj.ungraph.gcc_6.3.0_O3.drop_750M.length_250M.champsimtrace.xz
Heartbeat CPU 3 instructions: 250000003 cycles: 188418907 heartbeat IPC: 1.16181 cumulative IPC: 1.16447 (Simulation time: 1 hr 9 min 0 sec) 
Finished CPU 3 instructions: 200000000 cycles: 171752226 cumulative IPC: 1.16447 (Simulation time: 1 hr 9 min 0 sec) 
*** Reached end of trace for Core: 2 Repeating trace: ./traces/ligra/ligra_BFSCC.com-lj.ungraph.gcc_6.3.0_O3.drop_750M.length_250M.champsimtrace.xz
Heartbeat CPU 2 instructions: 250000003 cycles: 188424579 heartbeat IPC: 1.16195 cumulative IPC: 1.16443 (Simulation time: 1 hr 9 min 0 sec) 
Finished CPU 2 instructions: 200000001 cycles: 171758336 cumulative IPC: 1.16443 (Simulation time: 1 hr 9 min 0 sec) 

ChampSim completed all CPUs

Total Simulation Statistics (not including warmup)

CPU 0 cumulative IPC: 1.16455 instructions: 200021943 cycles: 171758336
ITLB TOTAL     ACCESS:   33215069  HIT:   33215069  MISS:          0  HIT %:        100  MISS %:          0   MPKI: 0
ITLB LOAD      ACCESS:          0  HIT:          0  MISS:          0  HIT %:       -nan  MISS %:       -nan   MPKI: 0
ITLB RFO       ACCESS:          0  HIT:          0  MISS:          0  HIT %:       -nan  MISS %:       -nan   MPKI: 0
ITLB PREFETCH  ACCESS:          0  HIT:          0  MISS:          0  HIT %:       -nan  MISS %:       -nan   MPKI: 0
ITLB WRITEBACK ACCESS:          0  HIT:          0  MISS:          0  HIT %:       -nan  MISS %:       -nan   MPKI: 0
DTLB TOTAL     ACCESS:   18109323  HIT:   18102010  MISS:       7313  HIT %:    99.9596  MISS %:  0.0403825   MPKI: 0.036561
DTLB LOAD      ACCESS:          0  HIT:          0  MISS:          0  HIT %:       -nan  MISS %:       -nan   MPKI: 0
DTLB RFO       ACCESS:          0  HIT:          0  MISS:          0  HIT %:       -nan  MISS %:       -nan   MPKI: 0
DTLB PREFETCH  ACCESS:          0  HIT:          0  MISS:          0  HIT %:       -nan  MISS %:       -nan   MPKI: 0
DTLB WRITEBACK ACCESS:          0  HIT:          0  MISS:          0  HIT %:       -nan  MISS %:       -nan   MPKI: 0
STLB TOTAL     ACCESS:   11281233  HIT:   11273919  MISS:       7314  HIT %:    99.9352  MISS %:  0.0648333   MPKI: 0.036566
STLB LOAD      ACCESS:          0  HIT:          0  MISS:          0  HIT %:       -nan  MISS %:       -nan   MPKI: 0
STLB RFO       ACCESS:          0  HIT:          0  MISS:          0  HIT %:       -nan  MISS %:       -nan   MPKI: 0
STLB PREFETCH  ACCESS:          0  HIT:          0  MISS:          0  HIT %:       -nan  MISS %:       -nan   MPKI: 0
STLB WRITEBACK ACCESS:          0  HIT:          0  MISS:          0  HIT %:       -nan  MISS %:       -nan   MPKI: 0
L1D TOTAL     ACCESS:   76834747  HIT:   76366745  MISS:     468002  HIT %:    99.3909  MISS %:   0.609102   MPKI: 2.33975
L1D LOAD      ACCESS:   14529866  HIT:   14522496  MISS:       7370  HIT %:    99.9493  MISS %:  0.0507231   MPKI: 0.036846
L1D RFO       ACCESS:    4062112  HIT:    4062112  MISS:          0  HIT %:        100  MISS %:          0   MPKI: 0
L1D PREFETCH  ACCESS:   58242769  HIT:   57782137  MISS:     460632  HIT %:    99.2091  MISS %:   0.790883   MPKI: 2.30291
L1D WRITEBACK ACCESS:          0  HIT:          0  MISS:          0  HIT %:       -nan  MISS %:       -nan   MPKI: 0
L1I TOTAL     ACCESS:   33215069  HIT:   33215069  MISS:          0  HIT %:        100  MISS %:          0   MPKI: 0
L1I LOAD      ACCESS:   33215069  HIT:   33215069  MISS:          0  HIT %:        100  MISS %:          0   MPKI: 0
L1I RFO       ACCESS:          0  HIT:          0  MISS:          0  HIT %:       -nan  MISS %:       -nan   MPKI: 0
L1I PREFETCH  ACCESS:          0  HIT:          0  MISS:          0  HIT %:       -nan  MISS %:       -nan   MPKI: 0
L1I WRITEBACK ACCESS:          0  HIT:          0  MISS:          0  HIT %:       -nan  MISS %:       -nan   MPKI: 0
L2C TOTAL     ACCESS:    3075137  HIT:    2397484  MISS:     677653  HIT %:    77.9635  MISS %:    22.0365   MPKI: 3.38789
L2C LOAD      ACCESS:       3338  HIT:          0  MISS:       3338  HIT %:          0  MISS %:        100   MPKI: 0.0166882
L2C RFO       ACCESS:          0  HIT:          0  MISS:          0  HIT %:       -nan  MISS %:       -nan   MPKI: 0
L2C PREFETCH  ACCESS:    1549836  HIT:    1085171  MISS:     464665  HIT %:    70.0184  MISS %:    29.9816   MPKI: 2.32307
L2C WRITEBACK ACCESS:     468002  HIT:     259282  MISS:     208720  HIT %:    55.4019  MISS %:    44.5981   MPKI: 1.04349
PSCL5 TOTAL     ACCESS:    1053961  HIT:    1053961  MISS:          0  HIT %:        100  MISS %:          0   MPKI: 0
PSCL5 LOAD      ACCESS:          0  HIT:          0  MISS:          0  HIT %:       -nan  MISS %:       -nan   MPKI: 0
PSCL5 RFO       ACCESS:          0  HIT:          0  MISS:          0  HIT %:       -nan  MISS %:       -nan   MPKI: 0
PSCL5 PREFETCH  ACCESS:          0  HIT:          0  MISS:          0  HIT %:       -nan  MISS %:       -nan   MPKI: 0
PSCL5 WRITEBACK ACCESS:          0  HIT:          0  MISS:          0  HIT %:       -nan  MISS %:       -nan   MPKI: 0
PSCL4 TOTAL     ACCESS:    1053961  HIT:    1053961  MISS:          0  HIT %:        100  MISS %:          0   MPKI: 0
PSCL4 LOAD      ACCESS:          0  HIT:          0  MISS:          0  HIT %:       -nan  MISS %:       -nan   MPKI: 0
PSCL4 RFO       ACCESS:          0  HIT:          0  MISS:          0  HIT %:       -nan  MISS %:       -nan   MPKI: 0
PSCL4 PREFETCH  ACCESS:          0  HIT:          0  MISS:          0  HIT %:       -nan  MISS %:       -nan   MPKI: 0
PSCL4 WRITEBACK ACCESS:          0  HIT:          0  MISS:          0  HIT %:       -nan  MISS %:       -nan   MPKI: 0
PSCL3 TOTAL     ACCESS:    1053961  HIT:    1053961  MISS:          0  HIT %:        100  MISS %:          0   MPKI: 0
PSCL3 LOAD      ACCESS:          0  HIT:          0  MISS:          0  HIT %:       -nan  MISS %:       -nan   MPKI: 0
PSCL3 RFO       ACCESS:          0  HIT:          0  MISS:          0  HIT %:       -nan  MISS %:       -nan   MPKI: 0
PSCL3 PREFETCH  ACCESS:          0  HIT:          0  MISS:          0  HIT %:       -nan  MISS %:       -nan   MPKI: 0
PSCL3 WRITEBACK ACCESS:          0  HIT:          0  MISS:          0  HIT %:       -nan  MISS %:       -nan   MPKI: 0
PSCL2 TOTAL     ACCESS:    1051982  HIT:    1051967  MISS:         15  HIT %:    99.9986  MISS %: 0.00142588   MPKI: 7.49918e-05
PSCL2 LOAD      ACCESS:          0  HIT:          0  MISS:          0  HIT %:       -nan  MISS %:       -nan   MPKI: 0
PSCL2 RFO       ACCESS:          0  HIT:          0  MISS:          0  HIT %:       -nan  MISS %:       -nan   MPKI: 0
PSCL2 PREFETCH  ACCESS:          0  HIT:          0  MISS:          0  HIT %:       -nan  MISS %:       -nan   MPKI: 0
PSCL2 WRITEBACK ACCESS:          0  HIT:          0  MISS:          0  HIT %:       -nan  MISS %:       -nan   MPKI: 0
LLC TOTAL     ACCESS:     936978  HIT:     421043  MISS:     515935  HIT %:    44.9363  MISS %:    55.0637   MPKI: 2.57939
LLC LOAD      ACCESS:       3338  HIT:          0  MISS:       3338  HIT %:          0  MISS %:        100   MPKI: 0.0166882
LLC RFO       ACCESS:          0  HIT:          0  MISS:          0  HIT %:       -nan  MISS %:       -nan   MPKI: 0
LLC PREFETCH  ACCESS:     464665  HIT:          0  MISS:     464665  HIT %:          0  MISS %:        100   MPKI: 2.32307
LLC WRITEBACK ACCESS:     468045  HIT:     421040  MISS:      47005  HIT %:    89.9572  MISS %:    10.0428   MPKI: 0.234999

RAW hits: 0
Loads Generated: 29951898
Loads sent to L1D: 29951898
Stores Generated: 4062113
Stores sent to L1D: 4062112

CPU 1 cumulative IPC: 1.16451 instructions: 200015106 cycles: 171758336
ITLB TOTAL     ACCESS:   33213950  HIT:   33213950  MISS:          0  HIT %:        100  MISS %:          0   MPKI: 0
ITLB LOAD      ACCESS:          0  HIT:          0  MISS:          0  HIT %:       -nan  MISS %:       -nan   MPKI: 0
ITLB RFO       ACCESS:          0  HIT:          0  MISS:          0  HIT %:       -nan  MISS %:       -nan   MPKI: 0
ITLB PREFETCH  ACCESS:          0  HIT:          0  MISS:          0  HIT %:       -nan  MISS %:       -nan   MPKI: 0
ITLB WRITEBACK ACCESS:          0  HIT:          0  MISS:          0  HIT %:       -nan  MISS %:       -nan   MPKI: 0
DTLB TOTAL     ACCESS:   18109151  HIT:   18101838  MISS:       7313  HIT %:    99.9596  MISS %:  0.0403829   MPKI: 0.0365622
DTLB LOAD      ACCESS:          0  HIT:          0  MISS:          0  HIT %:       -nan  MISS %:       -nan   MPKI: 0
DTLB RFO       ACCESS:          0  HIT:          0  MISS:          0  HIT %:       -nan  MISS %:       -nan   MPKI: 0
DTLB PREFETCH  ACCESS:          0  HIT:          0  MISS:          0  HIT %:       -nan  MISS %:       -nan   MPKI: 0
DTLB WRITEBACK ACCESS:          0  HIT:          0  MISS:          0  HIT %:       -nan  MISS %:       -nan   MPKI: 0
STLB TOTAL     ACCESS:   11281050  HIT:   11273737  MISS:       7313  HIT %:    99.9352  MISS %:  0.0648255   MPKI: 0.0365622
STLB LOAD      ACCESS:          0  HIT:          0  MISS:          0  HIT %:       -nan  MISS %:       -nan   MPKI: 0
STLB RFO       ACCESS:          0  HIT:          0  MISS:          0  HIT %:       -nan  MISS %:       -nan   MPKI: 0
STLB PREFETCH  ACCESS:          0  HIT:          0  MISS:          0  HIT %:       -nan  MISS %:       -nan   MPKI: 0
STLB WRITEBACK ACCESS:          0  HIT:          0  MISS:          0  HIT %:       -nan  MISS %:       -nan   MPKI: 0
L1D TOTAL     ACCESS:   76845460  HIT:   76377467  MISS:     467993  HIT %:     99.391  MISS %:   0.609005   MPKI: 2.33979
L1D LOAD      ACCESS:   14529545  HIT:   14522147  MISS:       7398  HIT %:    99.9491  MISS %:  0.0509169   MPKI: 0.0369872
L1D RFO       ACCESS:    4061976  HIT:    4061976  MISS:          0  HIT %:        100  MISS %:          0   MPKI: 0
L1D PREFETCH  ACCESS:   58253939  HIT:   57793344  MISS:     460595  HIT %:    99.2093  MISS %:   0.790668   MPKI: 2.3028
L1D WRITEBACK ACCESS:          0  HIT:          0  MISS:          0  HIT %:       -nan  MISS %:       -nan   MPKI: 0
L1I TOTAL     ACCESS:   33213949  HIT:   33213949  MISS:          0  HIT %:        100  MISS %:          0   MPKI: 0
L1I LOAD      ACCESS:   33213949  HIT:   33213949  MISS:          0  HIT %:        100  MISS %:          0   MPKI: 0
L1I RFO       ACCESS:          0  HIT:          0  MISS:          0  HIT %:       -nan  MISS %:       -nan   MPKI: 0
L1I PREFETCH  ACCESS:          0  HIT:          0  MISS:          0  HIT %:       -nan  MISS %:       -nan   MPKI: 0
L1I WRITEBACK ACCESS:          0  HIT:          0  MISS:          0  HIT %:       -nan  MISS %:       -nan   MPKI: 0
L2C TOTAL     ACCESS:    3085595  HIT:    2411189  MISS:     674406  HIT %:    78.1434  MISS %:    21.8566   MPKI: 3.37178
L2C LOAD      ACCESS:       3337  HIT:          0  MISS:       3337  HIT %:          0  MISS %:        100   MPKI: 0.0166837
L2C RFO       ACCESS:          0  HIT:          0  MISS:          0  HIT %:       -nan  MISS %:       -nan   MPKI: 0
L2C PREFETCH  ACCESS:    1561090  HIT:    1096433  MISS:     464657  HIT %:    70.2351  MISS %:    29.7649   MPKI: 2.32311
L2C WRITEBACK ACCESS:     467993  HIT:     262510  MISS:     205483  HIT %:    56.0927  MISS %:    43.9073   MPKI: 1.02734
PSCL5 TOTAL     ACCESS:    1053175  HIT:    1053175  MISS:          0  HIT %:        100  MISS %:          0   MPKI: 0
PSCL5 LOAD      ACCESS:          0  HIT:          0  MISS:          0  HIT %:       -nan  MISS %:       -nan   MPKI: 0
PSCL5 RFO       ACCESS:          0  HIT:          0  MISS:          0  HIT %:       -nan  MISS %:       -nan   MPKI: 0
PSCL5 PREFETCH  ACCESS:          0  HIT:          0  MISS:          0  HIT %:       -nan  MISS %:       -nan   MPKI: 0
PSCL5 WRITEBACK ACCESS:          0  HIT:          0  MISS:          0  HIT %:       -nan  MISS %:       -nan   MPKI: 0
PSCL4 TOTAL     ACCESS:    1053175  HIT:    1053175  MISS:          0  HIT %:        100  MISS %:          0   MPKI: 0
PSCL4 LOAD      ACCESS:          0  HIT:          0  MISS:          0  HIT %:       -nan  MISS %:       -nan   MPKI: 0
PSCL4 RFO       ACCESS:          0  HIT:          0  MISS:          0  HIT %:       -nan  MISS %:       -nan   MPKI: 0
PSCL4 PREFETCH  ACCESS:          0  HIT:          0  MISS:          0  HIT %:       -nan  MISS %:       -nan   MPKI: 0
PSCL4 WRITEBACK ACCESS:          0  HIT:          0  MISS:          0  HIT %:       -nan  MISS %:       -nan   MPKI: 0
PSCL3 TOTAL     ACCESS:    1053175  HIT:    1053175  MISS:          0  HIT %:        100  MISS %:          0   MPKI: 0
PSCL3 LOAD      ACCESS:          0  HIT:          0  MISS:          0  HIT %:       -nan  MISS %:       -nan   MPKI: 0
PSCL3 RFO       ACCESS:          0  HIT:          0  MISS:          0  HIT %:       -nan  MISS %:       -nan   MPKI: 0
PSCL3 PREFETCH  ACCESS:          0  HIT:          0  MISS:          0  HIT %:       -nan  MISS %:       -nan   MPKI: 0
PSCL3 WRITEBACK ACCESS:          0  HIT:          0  MISS:          0  HIT %:       -nan  MISS %:       -nan   MPKI: 0
PSCL2 TOTAL     ACCESS:    1051115  HIT:    1051100  MISS:         15  HIT %:    99.9986  MISS %: 0.00142706   MPKI: 7.49943e-05
PSCL2 LOAD      ACCESS:          0  HIT:          0  MISS:          0  HIT %:       -nan  MISS %:       -nan   MPKI: 0
PSCL2 RFO       ACCESS:          0  HIT:          0  MISS:          0  HIT %:       -nan  MISS %:       -nan   MPKI: 0
PSCL2 PREFETCH  ACCESS:          0  HIT:          0  MISS:          0  HIT %:       -nan  MISS %:       -nan   MPKI: 0
PSCL2 WRITEBACK ACCESS:          0  HIT:          0  MISS:          0  HIT %:       -nan  MISS %:       -nan   MPKI: 0
LLC TOTAL     ACCESS:     936899  HIT:     421277  MISS:     515622  HIT %:     44.965  MISS %:     55.035   MPKI: 2.57792
LLC LOAD      ACCESS:       3337  HIT:          0  MISS:       3337  HIT %:          0  MISS %:        100   MPKI: 0.0166837
LLC RFO       ACCESS:          0  HIT:          0  MISS:          0  HIT %:       -nan  MISS %:       -nan   MPKI: 0
LLC PREFETCH  ACCESS:     464657  HIT:          0  MISS:     464657  HIT %:          0  MISS %:        100   MPKI: 2.32311
LLC WRITEBACK ACCESS:     467976  HIT:     421277  MISS:      46699  HIT %:    90.0211  MISS %:    9.97893   MPKI: 0.233477

RAW hits: 0
Loads Generated: 29950872
Loads sent to L1D: 29950871
Stores Generated: 4061977
Stores sent to L1D: 4061976

CPU 2 cumulative IPC: 1.16443 instructions: 200000001 cycles: 171758336
ITLB TOTAL     ACCESS:   33211507  HIT:   33211507  MISS:          0  HIT %:        100  MISS %:          0   MPKI: 0
ITLB LOAD      ACCESS:          0  HIT:          0  MISS:          0  HIT %:       -nan  MISS %:       -nan   MPKI: 0
ITLB RFO       ACCESS:          0  HIT:          0  MISS:          0  HIT %:       -nan  MISS %:       -nan   MPKI: 0
ITLB PREFETCH  ACCESS:          0  HIT:          0  MISS:          0  HIT %:       -nan  MISS %:       -nan   MPKI: 0
ITLB WRITEBACK ACCESS:          0  HIT:          0  MISS:          0  HIT %:       -nan  MISS %:       -nan   MPKI: 0
DTLB TOTAL     ACCESS:   18107467  HIT:   18100154  MISS:       7313  HIT %:    99.9596  MISS %:  0.0403867   MPKI: 0.036565
DTLB LOAD      ACCESS:          0  HIT:          0  MISS:          0  HIT %:       -nan  MISS %:       -nan   MPKI: 0
DTLB RFO       ACCESS:          0  HIT:          0  MISS:          0  HIT %:       -nan  MISS %:       -nan   MPKI: 0
DTLB PREFETCH  ACCESS:          0  HIT:          0  MISS:          0  HIT %:       -nan  MISS %:       -nan   MPKI: 0
DTLB WRITEBACK ACCESS:          0  HIT:          0  MISS:          0  HIT %:       -nan  MISS %:       -nan   MPKI: 0
STLB TOTAL     ACCESS:   11280325  HIT:   11273012  MISS:       7313  HIT %:    99.9352  MISS %:  0.0648297   MPKI: 0.036565
STLB LOAD      ACCESS:          0  HIT:          0  MISS:          0  HIT %:       -nan  MISS %:       -nan   MPKI: 0
STLB RFO       ACCESS:          0  HIT:          0  MISS:          0  HIT %:       -nan  MISS %:       -nan   MPKI: 0
STLB PREFETCH  ACCESS:          0  HIT:          0  MISS:          0  HIT %:       -nan  MISS %:       -nan   MPKI: 0
STLB WRITEBACK ACCESS:          0  HIT:          0  MISS:          0  HIT %:       -nan  MISS %:       -nan   MPKI: 0
L1D TOTAL     ACCESS:   76844448  HIT:   76376497  MISS:     467951  HIT %:     99.391  MISS %:   0.608959   MPKI: 2.33975
L1D LOAD      ACCESS:   14528203  HIT:   14520815  MISS:       7388  HIT %:    99.9491  MISS %:  0.0508528   MPKI: 0.03694
L1D RFO       ACCESS:    4061664  HIT:    4061664  MISS:          0  HIT %:        100  MISS %:          0   MPKI: 0
L1D PREFETCH  ACCESS:   58254581  HIT:   57794018  MISS:     460563  HIT %:    99.2094  MISS %:   0.790604   MPKI: 2.30281
L1D WRITEBACK ACCESS:          0  HIT:          0  MISS:          0  HIT %:       -nan  MISS %:       -nan   MPKI: 0
L1I TOTAL     ACCESS:   33211507  HIT:   33211507  MISS:          0  HIT %:        100  MISS %:          0   MPKI: 0
L1I LOAD      ACCESS:   33211507  HIT:   33211507  MISS:          0  HIT %:        100  MISS %:          0   MPKI: 0
L1I RFO       ACCESS:          0  HIT:          0  MISS:          0  HIT %:       -nan  MISS %:       -nan   MPKI: 0
L1I PREFETCH  ACCESS:          0  HIT:          0  MISS:          0  HIT %:       -nan  MISS %:       -nan   MPKI: 0
L1I WRITEBACK ACCESS:          0  HIT:          0  MISS:          0  HIT %:       -nan  MISS %:       -nan   MPKI: 0
L2C TOTAL     ACCESS:    3072382  HIT:    2394926  MISS:     677456  HIT %:    77.9501  MISS %:    22.0499   MPKI: 3.38728
L2C LOAD      ACCESS:       3337  HIT:          0  MISS:       3337  HIT %:          0  MISS %:        100   MPKI: 0.016685
L2C RFO       ACCESS:          0  HIT:          0  MISS:          0  HIT %:       -nan  MISS %:       -nan   MPKI: 0
L2C PREFETCH  ACCESS:    1547015  HIT:    1082410  MISS:     464605  HIT %:    69.9676  MISS %:    30.0324   MPKI: 2.32302
L2C WRITEBACK ACCESS:     467950  HIT:     259366  MISS:     208584  HIT %:     55.426  MISS %:     44.574   MPKI: 1.04292
PSCL5 TOTAL     ACCESS:    1054080  HIT:    1054080  MISS:          0  HIT %:        100  MISS %:          0   MPKI: 0
PSCL5 LOAD      ACCESS:          0  HIT:          0  MISS:          0  HIT %:       -nan  MISS %:       -nan   MPKI: 0
PSCL5 RFO       ACCESS:          0  HIT:          0  MISS:          0  HIT %:       -nan  MISS %:       -nan   MPKI: 0
PSCL5 PREFETCH  ACCESS:          0  HIT:          0  MISS:          0  HIT %:       -nan  MISS %:       -nan   MPKI: 0
PSCL5 WRITEBACK ACCESS:          0  HIT:          0  MISS:          0  HIT %:       -nan  MISS %:       -nan   MPKI: 0
PSCL4 TOTAL     ACCESS:    1054080  HIT:    1054080  MISS:          0  HIT %:        100  MISS %:          0   MPKI: 0
PSCL4 LOAD      ACCESS:          0  HIT:          0  MISS:          0  HIT %:       -nan  MISS %:       -nan   MPKI: 0
PSCL4 RFO       ACCESS:          0  HIT:          0  MISS:          0  HIT %:       -nan  MISS %:       -nan   MPKI: 0
PSCL4 PREFETCH  ACCESS:          0  HIT:          0  MISS:          0  HIT %:       -nan  MISS %:       -nan   MPKI: 0
PSCL4 WRITEBACK ACCESS:          0  HIT:          0  MISS:          0  HIT %:       -nan  MISS %:       -nan   MPKI: 0
PSCL3 TOTAL     ACCESS:    1054080  HIT:    1054080  MISS:          0  HIT %:        100  MISS %:          0   MPKI: 0
PSCL3 LOAD      ACCESS:          0  HIT:          0  MISS:          0  HIT %:       -nan  MISS %:       -nan   MPKI: 0
PSCL3 RFO       ACCESS:          0  HIT:          0  MISS:          0  HIT %:       -nan  MISS %:       -nan   MPKI: 0
PSCL3 PREFETCH  ACCESS:          0  HIT:          0  MISS:          0  HIT %:       -nan  MISS %:       -nan   MPKI: 0
PSCL3 WRITEBACK ACCESS:          0  HIT:          0  MISS:          0  HIT %:       -nan  MISS %:       -nan   MPKI: 0
PSCL2 TOTAL     ACCESS:    1051938  HIT:    1051923  MISS:         15  HIT %:    99.9986  MISS %: 0.00142594   MPKI: 7.5e-05
PSCL2 LOAD      ACCESS:          0  HIT:          0  MISS:          0  HIT %:       -nan  MISS %:       -nan   MPKI: 0
PSCL2 RFO       ACCESS:          0  HIT:          0  MISS:          0  HIT %:       -nan  MISS %:       -nan   MPKI: 0
PSCL2 PREFETCH  ACCESS:          0  HIT:          0  MISS:          0  HIT %:       -nan  MISS %:       -nan   MPKI: 0
PSCL2 WRITEBACK ACCESS:          0  HIT:          0  MISS:          0  HIT %:       -nan  MISS %:       -nan   MPKI: 0
LLC TOTAL     ACCESS:     936873  HIT:     423974  MISS:     512899  HIT %:    45.2542  MISS %:    54.7458   MPKI: 2.56449
LLC LOAD      ACCESS:       3337  HIT:          0  MISS:       3337  HIT %:          0  MISS %:        100   MPKI: 0.016685
LLC RFO       ACCESS:          0  HIT:          0  MISS:          0  HIT %:       -nan  MISS %:       -nan   MPKI: 0
LLC PREFETCH  ACCESS:     464606  HIT:          0  MISS:     464606  HIT %:          0  MISS %:        100   MPKI: 2.32303
LLC WRITEBACK ACCESS:     468000  HIT:     423974  MISS:      44026  HIT %:    90.5927  MISS %:    9.40726   MPKI: 0.22013

RAW hits: 0
Loads Generated: 29948631
Loads sent to L1D: 29948630
Stores Generated: 4061667
Stores sent to L1D: 4061664

CPU 3 cumulative IPC: 1.16447 instructions: 200007016 cycles: 171758336
ITLB TOTAL     ACCESS:   33212628  HIT:   33212628  MISS:          0  HIT %:        100  MISS %:          0   MPKI: 0
ITLB LOAD      ACCESS:          0  HIT:          0  MISS:          0  HIT %:       -nan  MISS %:       -nan   MPKI: 0
ITLB RFO       ACCESS:          0  HIT:          0  MISS:          0  HIT %:       -nan  MISS %:       -nan   MPKI: 0
ITLB PREFETCH  ACCESS:          0  HIT:          0  MISS:          0  HIT %:       -nan  MISS %:       -nan   MPKI: 0
ITLB WRITEBACK ACCESS:          0  HIT:          0  MISS:          0  HIT %:       -nan  MISS %:       -nan   MPKI: 0
DTLB TOTAL     ACCESS:   18108871  HIT:   18101558  MISS:       7313  HIT %:    99.9596  MISS %:  0.0403835   MPKI: 0.0365637
DTLB LOAD      ACCESS:          0  HIT:          0  MISS:          0  HIT %:       -nan  MISS %:       -nan   MPKI: 0
DTLB RFO       ACCESS:          0  HIT:          0  MISS:          0  HIT %:       -nan  MISS %:       -nan   MPKI: 0
DTLB PREFETCH  ACCESS:          0  HIT:          0  MISS:          0  HIT %:       -nan  MISS %:       -nan   MPKI: 0
DTLB WRITEBACK ACCESS:          0  HIT:          0  MISS:          0  HIT %:       -nan  MISS %:       -nan   MPKI: 0
STLB TOTAL     ACCESS:   11282100  HIT:   11274787  MISS:       7313  HIT %:    99.9352  MISS %:  0.0648195   MPKI: 0.0365637
STLB LOAD      ACCESS:          0  HIT:          0  MISS:          0  HIT %:       -nan  MISS %:       -nan   MPKI: 0
STLB RFO       ACCESS:          0  HIT:          0  MISS:          0  HIT %:       -nan  MISS %:       -nan   MPKI: 0
STLB PREFETCH  ACCESS:          0  HIT:          0  MISS:          0  HIT %:       -nan  MISS %:       -nan   MPKI: 0
STLB WRITEBACK ACCESS:          0  HIT:          0  MISS:          0  HIT %:       -nan  MISS %:       -nan   MPKI: 0
L1D TOTAL     ACCESS:   76824970  HIT:   76356996  MISS:     467974  HIT %:    99.3909  MISS %:   0.609143   MPKI: 2.33979
L1D LOAD      ACCESS:   14529430  HIT:   14522047  MISS:       7383  HIT %:    99.9492  MISS %:  0.0508141   MPKI: 0.0369137
L1D RFO       ACCESS:    4061812  HIT:    4061812  MISS:          0  HIT %:        100  MISS %:          0   MPKI: 0
L1D PREFETCH  ACCESS:   58233728  HIT:   57773137  MISS:     460591  HIT %:    99.2091  MISS %:   0.790935   MPKI: 2.30287
L1D WRITEBACK ACCESS:          0  HIT:          0  MISS:          0  HIT %:       -nan  MISS %:       -nan   MPKI: 0
L1I TOTAL     ACCESS:   33212627  HIT:   33212627  MISS:          0  HIT %:        100  MISS %:          0   MPKI: 0
L1I LOAD      ACCESS:   33212627  HIT:   33212627  MISS:          0  HIT %:        100  MISS %:          0   MPKI: 0
L1I RFO       ACCESS:          0  HIT:          0  MISS:          0  HIT %:       -nan  MISS %:       -nan   MPKI: 0
L1I PREFETCH  ACCESS:          0  HIT:          0  MISS:          0  HIT %:       -nan  MISS %:       -nan   MPKI: 0
L1I WRITEBACK ACCESS:          0  HIT:          0  MISS:          0  HIT %:       -nan  MISS %:       -nan   MPKI: 0
L2C TOTAL     ACCESS:    3080932  HIT:    2403463  MISS:     677469  HIT %:    78.0109  MISS %:    21.9891   MPKI: 3.38723
L2C LOAD      ACCESS:       3339  HIT:          0  MISS:       3339  HIT %:          0  MISS %:        100   MPKI: 0.0166944
L2C RFO       ACCESS:          0  HIT:          0  MISS:          0  HIT %:       -nan  MISS %:       -nan   MPKI: 0
L2C PREFETCH  ACCESS:    1557499  HIT:    1092866  MISS:     464633  HIT %:     70.168  MISS %:     29.832   MPKI: 2.32308
L2C WRITEBACK ACCESS:     467974  HIT:     259407  MISS:     208567  HIT %:    55.4319  MISS %:    44.5681   MPKI: 1.0428
PSCL5 TOTAL     ACCESS:    1052120  HIT:    1052120  MISS:          0  HIT %:        100  MISS %:          0   MPKI: 0
PSCL5 LOAD      ACCESS:          0  HIT:          0  MISS:          0  HIT %:       -nan  MISS %:       -nan   MPKI: 0
PSCL5 RFO       ACCESS:          0  HIT:          0  MISS:          0  HIT %:       -nan  MISS %:       -nan   MPKI: 0
PSCL5 PREFETCH  ACCESS:          0  HIT:          0  MISS:          0  HIT %:       -nan  MISS %:       -nan   MPKI: 0
PSCL5 WRITEBACK ACCESS:          0  HIT:          0  MISS:          0  HIT %:       -nan  MISS %:       -nan   MPKI: 0
PSCL4 TOTAL     ACCESS:    1052120  HIT:    1052120  MISS:          0  HIT %:        100  MISS %:          0   MPKI: 0
PSCL4 LOAD      ACCESS:          0  HIT:          0  MISS:          0  HIT %:       -nan  MISS %:       -nan   MPKI: 0
PSCL4 RFO       ACCESS:          0  HIT:          0  MISS:          0  HIT %:       -nan  MISS %:       -nan   MPKI: 0
PSCL4 PREFETCH  ACCESS:          0  HIT:          0  MISS:          0  HIT %:       -nan  MISS %:       -nan   MPKI: 0
PSCL4 WRITEBACK ACCESS:          0  HIT:          0  MISS:          0  HIT %:       -nan  MISS %:       -nan   MPKI: 0
PSCL3 TOTAL     ACCESS:    1052120  HIT:    1052120  MISS:          0  HIT %:        100  MISS %:          0   MPKI: 0
PSCL3 LOAD      ACCESS:          0  HIT:          0  MISS:          0  HIT %:       -nan  MISS %:       -nan   MPKI: 0
PSCL3 RFO       ACCESS:          0  HIT:          0  MISS:          0  HIT %:       -nan  MISS %:       -nan   MPKI: 0
PSCL3 PREFETCH  ACCESS:          0  HIT:          0  MISS:          0  HIT %:       -nan  MISS %:       -nan   MPKI: 0
PSCL3 WRITEBACK ACCESS:          0  HIT:          0  MISS:          0  HIT %:       -nan  MISS %:       -nan   MPKI: 0
PSCL2 TOTAL     ACCESS:    1050123  HIT:    1050108  MISS:         15  HIT %:    99.9986  MISS %:  0.0014284   MPKI: 7.49974e-05
PSCL2 LOAD      ACCESS:          0  HIT:          0  MISS:          0  HIT %:       -nan  MISS %:       -nan   MPKI: 0
PSCL2 RFO       ACCESS:          0  HIT:          0  MISS:          0  HIT %:       -nan  MISS %:       -nan   MPKI: 0
PSCL2 PREFETCH  ACCESS:          0  HIT:          0  MISS:          0  HIT %:       -nan  MISS %:       -nan   MPKI: 0
PSCL2 WRITEBACK ACCESS:          0  HIT:          0  MISS:          0  HIT %:       -nan  MISS %:       -nan   MPKI: 0
LLC TOTAL     ACCESS:     936860  HIT:     421187  MISS:     515673  HIT %:    44.9573  MISS %:    55.0427   MPKI: 2.57827
LLC LOAD      ACCESS:       3339  HIT:          0  MISS:       3339  HIT %:          0  MISS %:        100   MPKI: 0.0166944
LLC RFO       ACCESS:          0  HIT:          0  MISS:          0  HIT %:       -nan  MISS %:       -nan   MPKI: 0
LLC PREFETCH  ACCESS:     464633  HIT:          0  MISS:     464633  HIT %:          0  MISS %:        100   MPKI: 2.32308
LLC WRITEBACK ACCESS:     467958  HIT:     421184  MISS:      46774  HIT %:    90.0047  MISS %:    9.99534   MPKI: 0.233862

RAW hits: 0
Loads Generated: 29949663
Loads sent to L1D: 29949661
Stores Generated: 4061811
Stores sent to L1D: 4061811

Region of Interest Statistics

CPU 0 cumulative IPC: 1.16455 instructions: 200000003 cycles: 171740142
ITLB TOTAL     ACCESS:   33211475  HIT:   33211475  MISS:          0  HIT %:        100  MISS %:          0   MPKI: 0
ITLB LOAD TRANSLATION ACCESS:   33211475  HIT:   33211475  MISS:          0  HIT %:        100  MISS %:          0   MPKI: 0
ITLB PREFETCH  REQUESTED:          0  ISSUED:          0  USEFUL:          0  USELESS:          0
ITLB USEFUL LOAD PREFETCHES:          0 PREFETCH ISSUED TO LOWER LEVEL:          0  ACCURACY: -nan
ITLB TIMELY PREFETCHES:          0 LATE PREFETCHES: 0 DROPPED PREFETCHES: 0
ITLB PREFETCHES SAME FILL-ORIGIN LEVEL: 0 DIFFERENT FILL-ORIGIN LEVEL: 0
ITLB AVERAGE MISS LATENCY: -nan cycles
ITLB RQ	ACCESS:   33215070	FORWARD:          0	MERGED:          0	TO_CACHE:   33215070

DTLB TOTAL     ACCESS:   18107360  HIT:   18100047  MISS:       7313  HIT %:    99.9596  MISS %:  0.0403869   MPKI: 0.036565
DTLB LOAD TRANSLATION ACCESS:   18107360  HIT:   18100047  MISS:       7313  HIT %:    99.9596  MISS %:  0.0403869   MPKI: 0.036565
DTLB PREFETCH  REQUESTED:          0  ISSUED:          0  USEFUL:          0  USELESS:          0
DTLB USEFUL LOAD PREFETCHES:          0 PREFETCH ISSUED TO LOWER LEVEL:          0  ACCURACY: -nan
DTLB TIMELY PREFETCHES:          0 LATE PREFETCHES: 0 DROPPED PREFETCHES: 0
DTLB PREFETCHES SAME FILL-ORIGIN LEVEL: 0 DIFFERENT FILL-ORIGIN LEVEL: 0
DTLB AVERAGE MISS LATENCY: 119.777 cycles
DTLB RQ	ACCESS:   18633619	FORWARD:          0	MERGED:     524296	TO_CACHE:   18109323

STLB TOTAL     ACCESS:   11279846  HIT:   11272533  MISS:       7313  HIT %:    99.9352  MISS %:  0.0648324   MPKI: 0.036565
STLB LOAD TRANSLATION ACCESS:       7313  HIT:          0  MISS:       7313  HIT %:          0  MISS %:        100   MPKI: 0.036565
STLB TRANSLATION FROM L1D PREFETCHER ACCESS:   11272533  HIT:   11272533  MISS:          0  HIT %:        100  MISS %:          0   MPKI: 0
STLB PREFETCH  REQUESTED:          0  ISSUED:          0  USEFUL:          1  USELESS:          0
STLB USEFUL LOAD PREFETCHES:          1 PREFETCH ISSUED TO LOWER LEVEL:          0  ACCURACY: inf
STLB TIMELY PREFETCHES:          1 LATE PREFETCHES: 1535 DROPPED PREFETCHES: 1045112
STLB PREFETCHES SAME FILL-ORIGIN LEVEL: 0 DIFFERENT FILL-ORIGIN LEVEL: 0
STLB AVERAGE MISS LATENCY: 108.46 cycles
STLB RQ	ACCESS:   66680903	FORWARD:          0	MERGED:   54285398	TO_CACHE:   12395505

STLB Hit, L1D data hit: 0
STLB Hit, L2C data hit: 0
STLB Hit, LLC data hit: 0
STLB Hit, LLC data miss: 0
STLB STLB hints to L2: 0
L1D TOTAL     ACCESS:   76827056  HIT:   76359111  MISS:     467945  HIT %:    99.3909  MISS %:   0.609089   MPKI: 2.33972
L1D LOAD      ACCESS:   14528282  HIT:   14520912  MISS:       7370  HIT %:    99.9493  MISS %:  0.0507286   MPKI: 0.03685
L1D RFO       ACCESS:    4061664  HIT:    4061664  MISS:          0  HIT %:        100  MISS %:          0   MPKI: 0
L1D PREFETCH  ACCESS:   58237110  HIT:   57776535  MISS:     460575  HIT %:    99.2091  MISS %:   0.790862   MPKI: 2.30287
L1D PREFETCH  REQUESTED:  179173075  ISSUED:  179173075  USEFUL:     460629  USELESS:          0
L1D USEFUL LOAD PREFETCHES:     460629 PREFETCH ISSUED TO LOWER LEVEL:    2447935  ACCURACY: 18.817
L1D TIMELY PREFETCHES:     460629 LATE PREFETCHES: 4032 DROPPED PREFETCHES: 2985570
L1D PREFETCHES SAME FILL-ORIGIN LEVEL: 464664 DIFFERENT FILL-ORIGIN LEVEL: 1983271
L1D AVERAGE MISS LATENCY: 183.331 cycles
L1D RQ	ACCESS:   29951898	FORWARD:          0	MERGED:   15380391	TO_CACHE:   14571507
L1D WQ	ACCESS:    4062112	FORWARD:          0	MERGED:          0	TO_CACHE:    4062112
L1D PQ	ACCESS:  112499485	FORWARD:          0	MERGED:   45825895	TO_CACHE:   66673590

L1D UNIQUE REGIONS ACCESSED: 0
L1D REGIONS CONFLICTS: 0
L1D Cross Page Prefetch Requests: 14875751
L1D Same Page Prefetch Requests: 156140952
L1D ROI Sum of L1D PQ occupancy: 870740747
L1D PREFETCHES PUSHED FROM L2C: 0
L1I TOTAL     ACCESS:   33211474  HIT:   33211474  MISS:          0  HIT %:        100  MISS %:          0   MPKI: 0
L1I LOAD      ACCESS:   33211474  HIT:   33211474  MISS:          0  HIT %:        100  MISS %:          0   MPKI: 0
L1I PREFETCH  REQUESTED:          0  ISSUED:          0  USEFUL:          0  USELESS:          0
L1I USEFUL LOAD PREFETCHES:          0 PREFETCH ISSUED TO LOWER LEVEL:          0  ACCURACY: -nan
L1I TIMELY PREFETCHES:          0 LATE PREFETCHES: 0 DROPPED PREFETCHES: 0
L1I PREFETCHES SAME FILL-ORIGIN LEVEL: 0 DIFFERENT FILL-ORIGIN LEVEL: 0
L1I AVERAGE MISS LATENCY: -nan cycles
L1I RQ	ACCESS:   80328187	FORWARD:          0	MERGED:   47113117	TO_CACHE:   33215070

BTB TOTAL     ACCESS:   59897335  HIT:   59897334  MISS:          1  HIT %:        100  MISS %: 1.66952e-06   MPKI: 5e-06
BTB BRANCH_DIRECT_JUMP	ACCESS:          0  HIT:          0  MISS:          0
BTB BRANCH_INDIRECT	ACCESS:          0  HIT:          0  MISS:          0
BTB BRANCH_CONDITIONAL	ACCESS:   59897335  HIT:   59897334  MISS:          1
BTB BRANCH_DIRECT_CALL	ACCESS:          0  HIT:          0  MISS:          0
BTB BRANCH_INDIRECT_CALL	ACCESS:          0  HIT:          0  MISS:          0
BTB BRANCH_RETURN	ACCESS:          0  HIT:          0  MISS:          0
BTB BRANCH_OTHER ACCESS:          0  HIT:          0  MISS:          0

L2C TOTAL     ACCESS:    3074548  HIT:    2396954  MISS:     677594  HIT %:    77.9612  MISS %:    22.0388   MPKI: 3.38797
L2C LOAD      ACCESS:       3338  HIT:          0  MISS:       3338  HIT %:          0  MISS %:        100   MPKI: 0.01669
L2C DATA LOAD MPKI: 0.01669
L2C INSTRUCTION LOAD MPKI: 0
L2C PREFETCH  ACCESS:    1549306  HIT:    1084699  MISS:     464607  HIT %:    70.0119  MISS %:    29.9881   MPKI: 2.32303
L2C DATA PREFETCH MPKI: 2.32303
L2C INSTRUCTION PREFETCH MPKI: 0
L2C WRITEBACK ACCESS:     467944  HIT:     259225  MISS:     208719  HIT %:    55.3966  MISS %:    44.6034   MPKI: 1.04359
L2C LOAD TRANSLATION ACCESS:       7313  HIT:       7312  MISS:          1  HIT %:    99.9863  MISS %:  0.0136743   MPKI: 5e-06
L2C TRANSLATION FROM L1D PREFETCHER ACCESS:    1046647  HIT:    1045718  MISS:        929  HIT %:    99.9112  MISS %:  0.0887596   MPKI: 0.004645
L2C PREFETCH  REQUESTED:          0  ISSUED:          0  USEFUL:        929  USELESS:     464402
L2C USEFUL LOAD PREFETCHES:        929 PREFETCH ISSUED TO LOWER LEVEL:     464665  ACCURACY: 0.199929
L2C TIMELY PREFETCHES:        929 LATE PREFETCHES: 0 DROPPED PREFETCHES: 0
L2C PREFETCHES SAME FILL-ORIGIN LEVEL: 93733 DIFFERENT FILL-ORIGIN LEVEL: 0
L2C AVERAGE MISS LATENCY: 148.112 cycles
L2C RQ	ACCESS:    1057299	FORWARD:          0	MERGED:          0	TO_CACHE:    1057299
L2C WQ	ACCESS:     468002	FORWARD:          0	MERGED:          0	TO_CACHE:     468002
L2C PQ	ACCESS:    2447935	FORWARD:          0	MERGED:        487	TO_CACHE:    2447448

L2C Instructions Evicting Data 0
L2C Translations Evicting Data 930
L2C Data Evicting Data 467208
L2C Instructions Evicting Instructions 0
L2C Translations Evicting Instructions 0
L2C Data Evicting Instructions 0
L2C Instructions Evicting Translations 0
L2C Translations Evicting Translations 0
L2C Data Evicting Translations 795
L2C Dense regions hint from L2: 0
PSCL5 TOTAL     ACCESS:    1053960  HIT:    1053960  MISS:          0  HIT %:        100  MISS %:          0   MPKI: 0
PSCL5 LOAD TRANSLATION ACCESS:       7313  HIT:       7313  MISS:          0  HIT %:        100  MISS %:          0   MPKI: 0
PSCL5 TRANSLATION FROM L1D PREFETCHER ACCESS:    1046647  HIT:    1046647  MISS:          0  HIT %:        100  MISS %:          0   MPKI: 0
PSCL5 PREFETCH  REQUESTED:          0  ISSUED:          0  USEFUL:          0  USELESS:          0
PSCL5 USEFUL LOAD PREFETCHES:          0 PREFETCH ISSUED TO LOWER LEVEL:          0  ACCURACY: -nan
PSCL5 TIMELY PREFETCHES:          0 LATE PREFETCHES: 0 DROPPED PREFETCHES: 0
PSCL5 PREFETCHES SAME FILL-ORIGIN LEVEL: 0 DIFFERENT FILL-ORIGIN LEVEL: 0

PSCL4 TOTAL     ACCESS:    1053960  HIT:    1053960  MISS:          0  HIT %:        100  MISS %:          0   MPKI: 0
PSCL4 LOAD TRANSLATION ACCESS:       7313  HIT:       7313  MISS:          0  HIT %:        100  MISS %:          0   MPKI: 0
PSCL4 TRANSLATION FROM L1D PREFETCHER ACCESS:    1046647  HIT:    1046647  MISS:          0  HIT %:        100  MISS %:          0   MPKI: 0
PSCL4 PREFETCH  REQUESTED:          0  ISSUED:          0  USEFUL:          0  USELESS:          0
PSCL4 USEFUL LOAD PREFETCHES:          0 PREFETCH ISSUED TO LOWER LEVEL:          0  ACCURACY: -nan
PSCL4 TIMELY PREFETCHES:          0 LATE PREFETCHES: 0 DROPPED PREFETCHES: 0
PSCL4 PREFETCHES SAME FILL-ORIGIN LEVEL: 0 DIFFERENT FILL-ORIGIN LEVEL: 0

PSCL3 TOTAL     ACCESS:    1053960  HIT:    1053960  MISS:          0  HIT %:        100  MISS %:          0   MPKI: 0
PSCL3 LOAD TRANSLATION ACCESS:       7313  HIT:       7313  MISS:          0  HIT %:        100  MISS %:          0   MPKI: 0
PSCL3 TRANSLATION FROM L1D PREFETCHER ACCESS:    1046647  HIT:    1046647  MISS:          0  HIT %:        100  MISS %:          0   MPKI: 0
PSCL3 PREFETCH  REQUESTED:          0  ISSUED:          0  USEFUL:          0  USELESS:          0
PSCL3 USEFUL LOAD PREFETCHES:          0 PREFETCH ISSUED TO LOWER LEVEL:          0  ACCURACY: -nan
PSCL3 TIMELY PREFETCHES:          0 LATE PREFETCHES: 0 DROPPED PREFETCHES: 0
PSCL3 PREFETCHES SAME FILL-ORIGIN LEVEL: 0 DIFFERENT FILL-ORIGIN LEVEL: 0

PSCL2 TOTAL     ACCESS:    1051981  HIT:    1051966  MISS:         15  HIT %:    99.9986  MISS %: 0.00142588   MPKI: 7.5e-05
PSCL2 LOAD TRANSLATION ACCESS:       7313  HIT:       7298  MISS:         15  HIT %:    99.7949  MISS %:   0.205114   MPKI: 7.5e-05
PSCL2 TRANSLATION FROM L1D PREFETCHER ACCESS:    1044668  HIT:    1044668  MISS:          0  HIT %:        100  MISS %:          0   MPKI: 0
PSCL2 PREFETCH  REQUESTED:          0  ISSUED:          0  USEFUL:          0  USELESS:          0
PSCL2 USEFUL LOAD PREFETCHES:          0 PREFETCH ISSUED TO LOWER LEVEL:          0  ACCURACY: -nan
PSCL2 TIMELY PREFETCHES:          0 LATE PREFETCHES: 0 DROPPED PREFETCHES: 0
PSCL2 PREFETCHES SAME FILL-ORIGIN LEVEL: 0 DIFFERENT FILL-ORIGIN LEVEL: 0

LLC TOTAL     ACCESS:     936876  HIT:     420994  MISS:     515882  HIT %:    44.9359  MISS %:    55.0641   MPKI: 2.57941
LLC LOAD      ACCESS:       3338  HIT:          0  MISS:       3338  HIT %:          0  MISS %:        100   MPKI: 0.01669
LLC PREFETCH  ACCESS:     464612  HIT:          0  MISS:     464612  HIT %:          0  MISS %:        100   MPKI: 2.32306
LLC WRITEBACK ACCESS:     467996  HIT:     420991  MISS:      47005  HIT %:    89.9561  MISS %:    10.0439   MPKI: 0.235025
LLC LOAD TRANSLATION ACCESS:          1  HIT:          0  MISS:          1  HIT %:          0  MISS %:        100   MPKI: 5e-06
LLC TRANSLATION FROM L1D PREFETCHER ACCESS:        929  HIT:          3  MISS:        926  HIT %:   0.322928  MISS %:    99.6771   MPKI: 0.00463
LLC PREFETCH  REQUESTED:          0  ISSUED:          0  USEFUL:          0  USELESS:    1865340
LLC USEFUL LOAD PREFETCHES:          0 PREFETCH ISSUED TO LOWER LEVEL:    1858564  ACCURACY: 0
LLC TIMELY PREFETCHES:          0 LATE PREFETCHES: 0 DROPPED PREFETCHES: 0
LLC PREFETCHES SAME FILL-ORIGIN LEVEL: 0 DIFFERENT FILL-ORIGIN LEVEL: 0
LLC AVERAGE MISS LATENCY: 668.17 cycles
LLC RQ	ACCESS:      17070	FORWARD:          0	MERGED:          0	TO_CACHE:      17070
LLC WQ	ACCESS:    1871980	FORWARD:          0	MERGED:          0	TO_CACHE:    1871980
LLC PQ	ACCESS:    1858564	FORWARD:          0	MERGED:          0	TO_CACHE:    1858564

LLC Dense regions hint to LLC: 0

RAW hits: 0
Loads Generated: 29948631
Loads sent to L1D: 29948630
Stores Generated: 4061667
Stores sent to L1D: 4061664
Major fault: 0 Minor fault: 9164
Allocated PAGES: 36656

CPU 1 cumulative IPC: 1.16451 instructions: 200000002 cycles: 171745899
ITLB TOTAL     ACCESS:   33211493  HIT:   33211493  MISS:          0  HIT %:        100  MISS %:          0   MPKI: 0
ITLB LOAD TRANSLATION ACCESS:   33211493  HIT:   33211493  MISS:          0  HIT %:        100  MISS %:          0   MPKI: 0
ITLB PREFETCH  REQUESTED:          0  ISSUED:          0  USEFUL:          0  USELESS:          0
ITLB USEFUL LOAD PREFETCHES:          0 PREFETCH ISSUED TO LOWER LEVEL:          0  ACCURACY: -nan
ITLB TIMELY PREFETCHES:          0 LATE PREFETCHES: 0 DROPPED PREFETCHES: 0
ITLB PREFETCHES SAME FILL-ORIGIN LEVEL: 0 DIFFERENT FILL-ORIGIN LEVEL: 0
ITLB AVERAGE MISS LATENCY: -nan cycles
ITLB RQ	ACCESS:   33213949	FORWARD:          0	MERGED:          0	TO_CACHE:   33213949

DTLB TOTAL     ACCESS:   18107791  HIT:   18100478  MISS:       7313  HIT %:    99.9596  MISS %:  0.0403859   MPKI: 0.036565
DTLB LOAD TRANSLATION ACCESS:   18107791  HIT:   18100478  MISS:       7313  HIT %:    99.9596  MISS %:  0.0403859   MPKI: 0.036565
DTLB PREFETCH  REQUESTED:          0  ISSUED:          0  USEFUL:          0  USELESS:          0
DTLB USEFUL LOAD PREFETCHES:          0 PREFETCH ISSUED TO LOWER LEVEL:          0  ACCURACY: -nan
DTLB TIMELY PREFETCHES:          0 LATE PREFETCHES: 0 DROPPED PREFETCHES: 0
DTLB PREFETCHES SAME FILL-ORIGIN LEVEL: 0 DIFFERENT FILL-ORIGIN LEVEL: 0
DTLB AVERAGE MISS LATENCY: 119.776 cycles
DTLB RQ	ACCESS:   18633326	FORWARD:          0	MERGED:     524175	TO_CACHE:   18109151

STLB TOTAL     ACCESS:   11280170  HIT:   11272857  MISS:       7313  HIT %:    99.9352  MISS %:  0.0648306   MPKI: 0.036565
STLB LOAD TRANSLATION ACCESS:       7313  HIT:          0  MISS:       7313  HIT %:          0  MISS %:        100   MPKI: 0.036565
STLB TRANSLATION FROM L1D PREFETCHER ACCESS:   11272857  HIT:   11272857  MISS:          0  HIT %:        100  MISS %:          0   MPKI: 0
STLB PREFETCH  REQUESTED:          0  ISSUED:          0  USEFUL:          0  USELESS:          0
STLB USEFUL LOAD PREFETCHES:          0 PREFETCH ISSUED TO LOWER LEVEL:          0  ACCURACY: -nan
STLB TIMELY PREFETCHES:          0 LATE PREFETCHES: 1535 DROPPED PREFETCHES: 1044327
STLB PREFETCHES SAME FILL-ORIGIN LEVEL: 0 DIFFERENT FILL-ORIGIN LEVEL: 0
STLB AVERAGE MISS LATENCY: 108.458 cycles
STLB RQ	ACCESS:   66681913	FORWARD:          0	MERGED:   54287367	TO_CACHE:   12394546

STLB Hit, L1D data hit: 0
STLB Hit, L2C data hit: 0
STLB Hit, LLC data hit: 0
STLB Hit, LLC data miss: 0
STLB STLB hints to L2: 0
L1D TOTAL     ACCESS:   76840820  HIT:   76372869  MISS:     467951  HIT %:     99.391  MISS %:   0.608988   MPKI: 2.33975
L1D LOAD      ACCESS:   14528454  HIT:   14521056  MISS:       7398  HIT %:    99.9491  MISS %:  0.0509208   MPKI: 0.03699
L1D RFO       ACCESS:    4061664  HIT:    4061664  MISS:          0  HIT %:        100  MISS %:          0   MPKI: 0
L1D PREFETCH  ACCESS:   58250702  HIT:   57790149  MISS:     460553  HIT %:    99.2094  MISS %:   0.790639   MPKI: 2.30276
L1D PREFETCH  REQUESTED:  179169960  ISSUED:  179169712  USEFUL:     460585  USELESS:          0
L1D USEFUL LOAD PREFETCHES:     460585 PREFETCH ISSUED TO LOWER LEVEL:    2449758  ACCURACY: 18.8012
L1D TIMELY PREFETCHES:     460585 LATE PREFETCHES: 4061 DROPPED PREFETCHES: 2984067
L1D PREFETCHES SAME FILL-ORIGIN LEVEL: 464656 DIFFERENT FILL-ORIGIN LEVEL: 1985102
L1D AVERAGE MISS LATENCY: 182.852 cycles
L1D RQ	ACCESS:   29950871	FORWARD:          0	MERGED:   15379521	TO_CACHE:   14571350
L1D WQ	ACCESS:    4061976	FORWARD:          0	MERGED:          0	TO_CACHE:    4061976
L1D PQ	ACCESS:  112495112	FORWARD:          0	MERGED:   45820512	TO_CACHE:   66674600

L1D UNIQUE REGIONS ACCESSED: 0
L1D REGIONS CONFLICTS: 0
L1D Cross Page Prefetch Requests: 14870685
L1D Same Page Prefetch Requests: 155489685
L1D ROI Sum of L1D PQ occupancy: 870692048
L1D PREFETCHES PUSHED FROM L2C: 0
L1I TOTAL     ACCESS:   33211493  HIT:   33211493  MISS:          0  HIT %:        100  MISS %:          0   MPKI: 0
L1I LOAD      ACCESS:   33211493  HIT:   33211493  MISS:          0  HIT %:        100  MISS %:          0   MPKI: 0
L1I PREFETCH  REQUESTED:          0  ISSUED:          0  USEFUL:          0  USELESS:          0
L1I USEFUL LOAD PREFETCHES:          0 PREFETCH ISSUED TO LOWER LEVEL:          0  ACCURACY: -nan
L1I TIMELY PREFETCHES:          0 LATE PREFETCHES: 0 DROPPED PREFETCHES: 0
L1I PREFETCHES SAME FILL-ORIGIN LEVEL: 0 DIFFERENT FILL-ORIGIN LEVEL: 0
L1I AVERAGE MISS LATENCY: -nan cycles
L1I RQ	ACCESS:   80325543	FORWARD:          0	MERGED:   47111594	TO_CACHE:   33213949

BTB TOTAL     ACCESS:   59897335  HIT:   59897334  MISS:          1  HIT %:        100  MISS %: 1.66952e-06   MPKI: 5e-06
BTB BRANCH_DIRECT_JUMP	ACCESS:          0  HIT:          0  MISS:          0
BTB BRANCH_INDIRECT	ACCESS:          0  HIT:          0  MISS:          0
BTB BRANCH_CONDITIONAL	ACCESS:   59897335  HIT:   59897334  MISS:          1
BTB BRANCH_DIRECT_CALL	ACCESS:          0  HIT:          0  MISS:          0
BTB BRANCH_INDIRECT_CALL	ACCESS:          0  HIT:          0  MISS:          0
BTB BRANCH_RETURN	ACCESS:          0  HIT:          0  MISS:          0
BTB BRANCH_OTHER ACCESS:          0  HIT:          0  MISS:          0

L2C TOTAL     ACCESS:    3084287  HIT:    2409939  MISS:     674348  HIT %:     78.136  MISS %:     21.864   MPKI: 3.37174
L2C LOAD      ACCESS:       3337  HIT:          0  MISS:       3337  HIT %:          0  MISS %:        100   MPKI: 0.016685
L2C DATA LOAD MPKI: 0.016685
L2C INSTRUCTION LOAD MPKI: 0
L2C PREFETCH  ACCESS:    1559825  HIT:    1095211  MISS:     464614  HIT %:    70.2137  MISS %:    29.7863   MPKI: 2.32307
L2C DATA PREFETCH MPKI: 2.32307
L2C INSTRUCTION PREFETCH MPKI: 0
L2C WRITEBACK ACCESS:     467950  HIT:     262482  MISS:     205468  HIT %:    56.0919  MISS %:    43.9081   MPKI: 1.02734
L2C LOAD TRANSLATION ACCESS:       7313  HIT:       7312  MISS:          1  HIT %:    99.9863  MISS %:  0.0136743   MPKI: 5e-06
L2C TRANSLATION FROM L1D PREFETCHER ACCESS:    1045862  HIT:    1044934  MISS:        928  HIT %:    99.9113  MISS %:  0.0887306   MPKI: 0.00464
L2C PREFETCH  REQUESTED:          0  ISSUED:          0  USEFUL:        928  USELESS:     464819
L2C USEFUL LOAD PREFETCHES:        928 PREFETCH ISSUED TO LOWER LEVEL:     464657  ACCURACY: 0.199717
L2C TIMELY PREFETCHES:        928 LATE PREFETCHES: 0 DROPPED PREFETCHES: 0
L2C PREFETCHES SAME FILL-ORIGIN LEVEL: 93525 DIFFERENT FILL-ORIGIN LEVEL: 0
L2C AVERAGE MISS LATENCY: 148.238 cycles
L2C RQ	ACCESS:    1056512	FORWARD:          0	MERGED:          0	TO_CACHE:    1056512
L2C WQ	ACCESS:     467993	FORWARD:          0	MERGED:          0	TO_CACHE:     467993
L2C PQ	ACCESS:    2449758	FORWARD:          0	MERGED:        569	TO_CACHE:    2449189

L2C Instructions Evicting Data 0
L2C Translations Evicting Data 929
L2C Data Evicting Data 467219
L2C Instructions Evicting Instructions 0
L2C Translations Evicting Instructions 0
L2C Data Evicting Instructions 0
L2C Instructions Evicting Translations 0
L2C Translations Evicting Translations 0
L2C Data Evicting Translations 775
L2C Dense regions hint from L2: 0
PSCL5 TOTAL     ACCESS:    1053175  HIT:    1053175  MISS:          0  HIT %:        100  MISS %:          0   MPKI: 0
PSCL5 LOAD TRANSLATION ACCESS:       7313  HIT:       7313  MISS:          0  HIT %:        100  MISS %:          0   MPKI: 0
PSCL5 TRANSLATION FROM L1D PREFETCHER ACCESS:    1045862  HIT:    1045862  MISS:          0  HIT %:        100  MISS %:          0   MPKI: 0
PSCL5 PREFETCH  REQUESTED:          0  ISSUED:          0  USEFUL:          0  USELESS:          0
PSCL5 USEFUL LOAD PREFETCHES:          0 PREFETCH ISSUED TO LOWER LEVEL:          0  ACCURACY: -nan
PSCL5 TIMELY PREFETCHES:          0 LATE PREFETCHES: 0 DROPPED PREFETCHES: 0
PSCL5 PREFETCHES SAME FILL-ORIGIN LEVEL: 0 DIFFERENT FILL-ORIGIN LEVEL: 0

PSCL4 TOTAL     ACCESS:    1053175  HIT:    1053175  MISS:          0  HIT %:        100  MISS %:          0   MPKI: 0
PSCL4 LOAD TRANSLATION ACCESS:       7313  HIT:       7313  MISS:          0  HIT %:        100  MISS %:          0   MPKI: 0
PSCL4 TRANSLATION FROM L1D PREFETCHER ACCESS:    1045862  HIT:    1045862  MISS:          0  HIT %:        100  MISS %:          0   MPKI: 0
PSCL4 PREFETCH  REQUESTED:          0  ISSUED:          0  USEFUL:          0  USELESS:          0
PSCL4 USEFUL LOAD PREFETCHES:          0 PREFETCH ISSUED TO LOWER LEVEL:          0  ACCURACY: -nan
PSCL4 TIMELY PREFETCHES:          0 LATE PREFETCHES: 0 DROPPED PREFETCHES: 0
PSCL4 PREFETCHES SAME FILL-ORIGIN LEVEL: 0 DIFFERENT FILL-ORIGIN LEVEL: 0

PSCL3 TOTAL     ACCESS:    1053175  HIT:    1053175  MISS:          0  HIT %:        100  MISS %:          0   MPKI: 0
PSCL3 LOAD TRANSLATION ACCESS:       7313  HIT:       7313  MISS:          0  HIT %:        100  MISS %:          0   MPKI: 0
PSCL3 TRANSLATION FROM L1D PREFETCHER ACCESS:    1045862  HIT:    1045862  MISS:          0  HIT %:        100  MISS %:          0   MPKI: 0
PSCL3 PREFETCH  REQUESTED:          0  ISSUED:          0  USEFUL:          0  USELESS:          0
PSCL3 USEFUL LOAD PREFETCHES:          0 PREFETCH ISSUED TO LOWER LEVEL:          0  ACCURACY: -nan
PSCL3 TIMELY PREFETCHES:          0 LATE PREFETCHES: 0 DROPPED PREFETCHES: 0
PSCL3 PREFETCHES SAME FILL-ORIGIN LEVEL: 0 DIFFERENT FILL-ORIGIN LEVEL: 0

PSCL2 TOTAL     ACCESS:    1051115  HIT:    1051100  MISS:         15  HIT %:    99.9986  MISS %: 0.00142706   MPKI: 7.5e-05
PSCL2 LOAD TRANSLATION ACCESS:       7313  HIT:       7298  MISS:         15  HIT %:    99.7949  MISS %:   0.205114   MPKI: 7.5e-05
PSCL2 TRANSLATION FROM L1D PREFETCHER ACCESS:    1043802  HIT:    1043802  MISS:          0  HIT %:        100  MISS %:          0   MPKI: 0
PSCL2 PREFETCH  REQUESTED:          0  ISSUED:          0  USEFUL:          0  USELESS:          0
PSCL2 USEFUL LOAD PREFETCHES:          0 PREFETCH ISSUED TO LOWER LEVEL:          0  ACCURACY: -nan
PSCL2 TIMELY PREFETCHES:          0 LATE PREFETCHES: 0 DROPPED PREFETCHES: 0
PSCL2 PREFETCHES SAME FILL-ORIGIN LEVEL: 0 DIFFERENT FILL-ORIGIN LEVEL: 0

LLC TOTAL     ACCESS:     936802  HIT:     421228  MISS:     515574  HIT %:    44.9645  MISS %:    55.0355   MPKI: 2.57787
LLC LOAD      ACCESS:       3337  HIT:          0  MISS:       3337  HIT %:          0  MISS %:        100   MPKI: 0.016685
LLC PREFETCH  ACCESS:     464618  HIT:          0  MISS:     464618  HIT %:          0  MISS %:        100   MPKI: 2.32309
LLC WRITEBACK ACCESS:     467918  HIT:     421228  MISS:      46690  HIT %:    90.0218  MISS %:    9.97824   MPKI: 0.23345
LLC LOAD TRANSLATION ACCESS:          1  HIT:          0  MISS:          1  HIT %:          0  MISS %:        100   MPKI: 5e-06
LLC TRANSLATION FROM L1D PREFETCHER ACCESS:        928  HIT:          0  MISS:        928  HIT %:          0  MISS %:        100   MPKI: 0.00464
LLC PREFETCH  REQUESTED:          0  ISSUED:          0  USEFUL:          0  USELESS:    1865340
LLC USEFUL LOAD PREFETCHES:          0 PREFETCH ISSUED TO LOWER LEVEL:    1858564  ACCURACY: 0
LLC TIMELY PREFETCHES:          0 LATE PREFETCHES: 0 DROPPED PREFETCHES: 0
LLC PREFETCHES SAME FILL-ORIGIN LEVEL: 0 DIFFERENT FILL-ORIGIN LEVEL: 0
LLC AVERAGE MISS LATENCY: 668.569 cycles
LLC RQ	ACCESS:      17070	FORWARD:          0	MERGED:          0	TO_CACHE:      17070
LLC WQ	ACCESS:    1871980	FORWARD:          0	MERGED:          0	TO_CACHE:    1871980
LLC PQ	ACCESS:    1858564	FORWARD:          0	MERGED:          0	TO_CACHE:    1858564

LLC Dense regions hint to LLC: 0

RAW hits: 0
Loads Generated: 29948631
Loads sent to L1D: 29948630
Stores Generated: 4061667
Stores sent to L1D: 4061664
Major fault: 0 Minor fault: 9164
Allocated PAGES: 36656

CPU 2 cumulative IPC: 1.16443 instructions: 200000001 cycles: 171758336
ITLB TOTAL     ACCESS:   33211507  HIT:   33211507  MISS:          0  HIT %:        100  MISS %:          0   MPKI: 0
ITLB LOAD TRANSLATION ACCESS:   33211507  HIT:   33211507  MISS:          0  HIT %:        100  MISS %:          0   MPKI: 0
ITLB PREFETCH  REQUESTED:          0  ISSUED:          0  USEFUL:          0  USELESS:          0
ITLB USEFUL LOAD PREFETCHES:          0 PREFETCH ISSUED TO LOWER LEVEL:          0  ACCURACY: -nan
ITLB TIMELY PREFETCHES:          0 LATE PREFETCHES: 0 DROPPED PREFETCHES: 0
ITLB PREFETCHES SAME FILL-ORIGIN LEVEL: 0 DIFFERENT FILL-ORIGIN LEVEL: 0
ITLB AVERAGE MISS LATENCY: -nan cycles
ITLB RQ	ACCESS:   33211507	FORWARD:          0	MERGED:          0	TO_CACHE:   33211507

DTLB TOTAL     ACCESS:   18107467  HIT:   18100154  MISS:       7313  HIT %:    99.9596  MISS %:  0.0403867   MPKI: 0.036565
DTLB LOAD TRANSLATION ACCESS:   18107467  HIT:   18100154  MISS:       7313  HIT %:    99.9596  MISS %:  0.0403867   MPKI: 0.036565
DTLB PREFETCH  REQUESTED:          0  ISSUED:          0  USEFUL:          0  USELESS:          0
DTLB USEFUL LOAD PREFETCHES:          0 PREFETCH ISSUED TO LOWER LEVEL:          0  ACCURACY: -nan
DTLB TIMELY PREFETCHES:          0 LATE PREFETCHES: 0 DROPPED PREFETCHES: 0
DTLB PREFETCHES SAME FILL-ORIGIN LEVEL: 0 DIFFERENT FILL-ORIGIN LEVEL: 0
DTLB AVERAGE MISS LATENCY: 119.777 cycles
DTLB RQ	ACCESS:   18631601	FORWARD:          0	MERGED:     524134	TO_CACHE:   18107467

STLB TOTAL     ACCESS:   11280325  HIT:   11273012  MISS:       7313  HIT %:    99.9352  MISS %:  0.0648297   MPKI: 0.036565
STLB LOAD TRANSLATION ACCESS:       7313  HIT:          0  MISS:       7313  HIT %:          0  MISS %:        100   MPKI: 0.036565
STLB TRANSLATION FROM L1D PREFETCHER ACCESS:   11273012  HIT:   11273012  MISS:          0  HIT %:        100  MISS %:          0   MPKI: 0
STLB PREFETCH  REQUESTED:          0  ISSUED:          0  USEFUL:          0  USELESS:          0
STLB USEFUL LOAD PREFETCHES:          0 PREFETCH ISSUED TO LOWER LEVEL:          0  ACCURACY: -nan
STLB TIMELY PREFETCHES:          0 LATE PREFETCHES: 1535 DROPPED PREFETCHES: 1045232
STLB PREFETCHES SAME FILL-ORIGIN LEVEL: 0 DIFFERENT FILL-ORIGIN LEVEL: 0
STLB AVERAGE MISS LATENCY: 108.458 cycles
STLB RQ	ACCESS:   66681615	FORWARD:          0	MERGED:   54286881	TO_CACHE:   12394734

STLB Hit, L1D data hit: 0
STLB Hit, L2C data hit: 0
STLB Hit, LLC data hit: 0
STLB Hit, LLC data miss: 0
STLB STLB hints to L2: 0
L1D TOTAL     ACCESS:   76844448  HIT:   76376497  MISS:     467951  HIT %:     99.391  MISS %:   0.608959   MPKI: 2.33975
L1D LOAD      ACCESS:   14528203  HIT:   14520815  MISS:       7388  HIT %:    99.9491  MISS %:  0.0508528   MPKI: 0.03694
L1D RFO       ACCESS:    4061664  HIT:    4061664  MISS:          0  HIT %:        100  MISS %:          0   MPKI: 0
L1D PREFETCH  ACCESS:   58254581  HIT:   57794018  MISS:     460563  HIT %:    99.2094  MISS %:   0.790604   MPKI: 2.30281
L1D PREFETCH  REQUESTED:  179170769  ISSUED:  179170769  USEFUL:     460560  USELESS:          0
L1D USEFUL LOAD PREFETCHES:     460560 PREFETCH ISSUED TO LOWER LEVEL:    2438508  ACCURACY: 18.887
L1D TIMELY PREFETCHES:     460560 LATE PREFETCHES: 4051 DROPPED PREFETCHES: 2986165
L1D PREFETCHES SAME FILL-ORIGIN LEVEL: 464618 DIFFERENT FILL-ORIGIN LEVEL: 1973890
L1D AVERAGE MISS LATENCY: 183.309 cycles
L1D RQ	ACCESS:   29948630	FORWARD:          0	MERGED:   15378693	TO_CACHE:   14569937
L1D WQ	ACCESS:    4061664	FORWARD:          0	MERGED:          0	TO_CACHE:    4061664
L1D PQ	ACCESS:  112496467	FORWARD:          0	MERGED:   45822165	TO_CACHE:   66674302

L1D UNIQUE REGIONS ACCESSED: 0
L1D REGIONS CONFLICTS: 0
L1D Cross Page Prefetch Requests: 14873780
L1D Same Page Prefetch Requests: 155318178
L1D ROI Sum of L1D PQ occupancy: 870664373
L1D PREFETCHES PUSHED FROM L2C: 0
L1I TOTAL     ACCESS:   33211507  HIT:   33211507  MISS:          0  HIT %:        100  MISS %:          0   MPKI: 0
L1I LOAD      ACCESS:   33211507  HIT:   33211507  MISS:          0  HIT %:        100  MISS %:          0   MPKI: 0
L1I PREFETCH  REQUESTED:          0  ISSUED:          0  USEFUL:          0  USELESS:          0
L1I USEFUL LOAD PREFETCHES:          0 PREFETCH ISSUED TO LOWER LEVEL:          0  ACCURACY: -nan
L1I TIMELY PREFETCHES:          0 LATE PREFETCHES: 0 DROPPED PREFETCHES: 0
L1I PREFETCHES SAME FILL-ORIGIN LEVEL: 0 DIFFERENT FILL-ORIGIN LEVEL: 0
L1I AVERAGE MISS LATENCY: -nan cycles
L1I RQ	ACCESS:   80319599	FORWARD:          0	MERGED:   47108092	TO_CACHE:   33211507

BTB TOTAL     ACCESS:   59897334  HIT:   59897333  MISS:          1  HIT %:        100  MISS %: 1.66952e-06   MPKI: 5e-06
BTB BRANCH_DIRECT_JUMP	ACCESS:          0  HIT:          0  MISS:          0
BTB BRANCH_INDIRECT	ACCESS:          0  HIT:          0  MISS:          0
BTB BRANCH_CONDITIONAL	ACCESS:   59897334  HIT:   59897333  MISS:          1
BTB BRANCH_DIRECT_CALL	ACCESS:          0  HIT:          0  MISS:          0
BTB BRANCH_INDIRECT_CALL	ACCESS:          0  HIT:          0  MISS:          0
BTB BRANCH_RETURN	ACCESS:          0  HIT:          0  MISS:          0
BTB BRANCH_OTHER ACCESS:          0  HIT:          0  MISS:          0

L2C TOTAL     ACCESS:    3072382  HIT:    2394926  MISS:     677456  HIT %:    77.9501  MISS %:    22.0499   MPKI: 3.38728
L2C LOAD      ACCESS:       3337  HIT:          0  MISS:       3337  HIT %:          0  MISS %:        100   MPKI: 0.016685
L2C DATA LOAD MPKI: 0.016685
L2C INSTRUCTION LOAD MPKI: 0
L2C PREFETCH  ACCESS:    1547015  HIT:    1082410  MISS:     464605  HIT %:    69.9676  MISS %:    30.0324   MPKI: 2.32302
L2C DATA PREFETCH MPKI: 2.32302
L2C INSTRUCTION PREFETCH MPKI: 0
L2C WRITEBACK ACCESS:     467950  HIT:     259366  MISS:     208584  HIT %:     55.426  MISS %:     44.574   MPKI: 1.04292
L2C LOAD TRANSLATION ACCESS:       7313  HIT:       7312  MISS:          1  HIT %:    99.9863  MISS %:  0.0136743   MPKI: 5e-06
L2C TRANSLATION FROM L1D PREFETCHER ACCESS:    1046767  HIT:    1045838  MISS:        929  HIT %:    99.9113  MISS %:  0.0887495   MPKI: 0.004645
L2C PREFETCH  REQUESTED:          0  ISSUED:          0  USEFUL:        929  USELESS:     464410
L2C USEFUL LOAD PREFETCHES:        929 PREFETCH ISSUED TO LOWER LEVEL:     464609  ACCURACY: 0.199953
L2C TIMELY PREFETCHES:        929 LATE PREFETCHES: 0 DROPPED PREFETCHES: 0
L2C PREFETCHES SAME FILL-ORIGIN LEVEL: 92903 DIFFERENT FILL-ORIGIN LEVEL: 0
L2C AVERAGE MISS LATENCY: 147.968 cycles
L2C RQ	ACCESS:    1057417	FORWARD:          0	MERGED:          0	TO_CACHE:    1057417
L2C WQ	ACCESS:     467951	FORWARD:          0	MERGED:          0	TO_CACHE:     467951
L2C PQ	ACCESS:    2438508	FORWARD:          0	MERGED:        532	TO_CACHE:    2437976

L2C Instructions Evicting Data 0
L2C Translations Evicting Data 930
L2C Data Evicting Data 467188
L2C Instructions Evicting Instructions 0
L2C Translations Evicting Instructions 0
L2C Data Evicting Instructions 0
L2C Instructions Evicting Translations 0
L2C Translations Evicting Translations 0
L2C Data Evicting Translations 754
L2C Dense regions hint from L2: 0
PSCL5 TOTAL     ACCESS:    1054080  HIT:    1054080  MISS:          0  HIT %:        100  MISS %:          0   MPKI: 0
PSCL5 LOAD TRANSLATION ACCESS:       7313  HIT:       7313  MISS:          0  HIT %:        100  MISS %:          0   MPKI: 0
PSCL5 TRANSLATION FROM L1D PREFETCHER ACCESS:    1046767  HIT:    1046767  MISS:          0  HIT %:        100  MISS %:          0   MPKI: 0
PSCL5 PREFETCH  REQUESTED:          0  ISSUED:          0  USEFUL:          0  USELESS:          0
PSCL5 USEFUL LOAD PREFETCHES:          0 PREFETCH ISSUED TO LOWER LEVEL:          0  ACCURACY: -nan
PSCL5 TIMELY PREFETCHES:          0 LATE PREFETCHES: 0 DROPPED PREFETCHES: 0
PSCL5 PREFETCHES SAME FILL-ORIGIN LEVEL: 0 DIFFERENT FILL-ORIGIN LEVEL: 0

PSCL4 TOTAL     ACCESS:    1054080  HIT:    1054080  MISS:          0  HIT %:        100  MISS %:          0   MPKI: 0
PSCL4 LOAD TRANSLATION ACCESS:       7313  HIT:       7313  MISS:          0  HIT %:        100  MISS %:          0   MPKI: 0
PSCL4 TRANSLATION FROM L1D PREFETCHER ACCESS:    1046767  HIT:    1046767  MISS:          0  HIT %:        100  MISS %:          0   MPKI: 0
PSCL4 PREFETCH  REQUESTED:          0  ISSUED:          0  USEFUL:          0  USELESS:          0
PSCL4 USEFUL LOAD PREFETCHES:          0 PREFETCH ISSUED TO LOWER LEVEL:          0  ACCURACY: -nan
PSCL4 TIMELY PREFETCHES:          0 LATE PREFETCHES: 0 DROPPED PREFETCHES: 0
PSCL4 PREFETCHES SAME FILL-ORIGIN LEVEL: 0 DIFFERENT FILL-ORIGIN LEVEL: 0

PSCL3 TOTAL     ACCESS:    1054080  HIT:    1054080  MISS:          0  HIT %:        100  MISS %:          0   MPKI: 0
PSCL3 LOAD TRANSLATION ACCESS:       7313  HIT:       7313  MISS:          0  HIT %:        100  MISS %:          0   MPKI: 0
PSCL3 TRANSLATION FROM L1D PREFETCHER ACCESS:    1046767  HIT:    1046767  MISS:          0  HIT %:        100  MISS %:          0   MPKI: 0
PSCL3 PREFETCH  REQUESTED:          0  ISSUED:          0  USEFUL:          0  USELESS:          0
PSCL3 USEFUL LOAD PREFETCHES:          0 PREFETCH ISSUED TO LOWER LEVEL:          0  ACCURACY: -nan
PSCL3 TIMELY PREFETCHES:          0 LATE PREFETCHES: 0 DROPPED PREFETCHES: 0
PSCL3 PREFETCHES SAME FILL-ORIGIN LEVEL: 0 DIFFERENT FILL-ORIGIN LEVEL: 0

PSCL2 TOTAL     ACCESS:    1051938  HIT:    1051923  MISS:         15  HIT %:    99.9986  MISS %: 0.00142594   MPKI: 7.5e-05
PSCL2 LOAD TRANSLATION ACCESS:       7313  HIT:       7298  MISS:         15  HIT %:    99.7949  MISS %:   0.205114   MPKI: 7.5e-05
PSCL2 TRANSLATION FROM L1D PREFETCHER ACCESS:    1044625  HIT:    1044625  MISS:          0  HIT %:        100  MISS %:          0   MPKI: 0
PSCL2 PREFETCH  REQUESTED:          0  ISSUED:          0  USEFUL:          0  USELESS:          0
PSCL2 USEFUL LOAD PREFETCHES:          0 PREFETCH ISSUED TO LOWER LEVEL:          0  ACCURACY: -nan
PSCL2 TIMELY PREFETCHES:          0 LATE PREFETCHES: 0 DROPPED PREFETCHES: 0
PSCL2 PREFETCHES SAME FILL-ORIGIN LEVEL: 0 DIFFERENT FILL-ORIGIN LEVEL: 0

LLC TOTAL     ACCESS:     936872  HIT:     423974  MISS:     512898  HIT %:    45.2542  MISS %:    54.7458   MPKI: 2.56449
LLC LOAD      ACCESS:       3337  HIT:          0  MISS:       3337  HIT %:          0  MISS %:        100   MPKI: 0.016685
LLC PREFETCH  ACCESS:     464605  HIT:          0  MISS:     464605  HIT %:          0  MISS %:        100   MPKI: 2.32302
LLC WRITEBACK ACCESS:     468000  HIT:     423974  MISS:      44026  HIT %:    90.5927  MISS %:    9.40726   MPKI: 0.22013
LLC LOAD TRANSLATION ACCESS:          1  HIT:          0  MISS:          1  HIT %:          0  MISS %:        100   MPKI: 5e-06
LLC TRANSLATION FROM L1D PREFETCHER ACCESS:        929  HIT:          0  MISS:        929  HIT %:          0  MISS %:        100   MPKI: 0.004645
LLC PREFETCH  REQUESTED:          0  ISSUED:          0  USEFUL:          0  USELESS:    1865340
LLC USEFUL LOAD PREFETCHES:          0 PREFETCH ISSUED TO LOWER LEVEL:    1858564  ACCURACY: 0
LLC TIMELY PREFETCHES:          0 LATE PREFETCHES: 0 DROPPED PREFETCHES: 0
LLC PREFETCHES SAME FILL-ORIGIN LEVEL: 0 DIFFERENT FILL-ORIGIN LEVEL: 0
LLC AVERAGE MISS LATENCY: 672.057 cycles
LLC RQ	ACCESS:      17070	FORWARD:          0	MERGED:          0	TO_CACHE:      17070
LLC WQ	ACCESS:    1871980	FORWARD:          0	MERGED:          0	TO_CACHE:    1871980
LLC PQ	ACCESS:    1858564	FORWARD:          0	MERGED:          0	TO_CACHE:    1858564

LLC Dense regions hint to LLC: 0

RAW hits: 0
Loads Generated: 29948631
Loads sent to L1D: 29948630
Stores Generated: 4061667
Stores sent to L1D: 4061664
Major fault: 0 Minor fault: 9164
Allocated PAGES: 36656

CPU 3 cumulative IPC: 1.16447 instructions: 200000000 cycles: 171752226
ITLB TOTAL     ACCESS:   33211454  HIT:   33211454  MISS:          0  HIT %:        100  MISS %:          0   MPKI: 0
ITLB LOAD TRANSLATION ACCESS:   33211454  HIT:   33211454  MISS:          0  HIT %:        100  MISS %:          0   MPKI: 0
ITLB PREFETCH  REQUESTED:          0  ISSUED:          0  USEFUL:          0  USELESS:          0
ITLB USEFUL LOAD PREFETCHES:          0 PREFETCH ISSUED TO LOWER LEVEL:          0  ACCURACY: -nan
ITLB TIMELY PREFETCHES:          0 LATE PREFETCHES: 0 DROPPED PREFETCHES: 0
ITLB PREFETCHES SAME FILL-ORIGIN LEVEL: 0 DIFFERENT FILL-ORIGIN LEVEL: 0
ITLB AVERAGE MISS LATENCY: -nan cycles
ITLB RQ	ACCESS:   33212627	FORWARD:          0	MERGED:          0	TO_CACHE:   33212627

DTLB TOTAL     ACCESS:   18108251  HIT:   18100939  MISS:       7312  HIT %:    99.9596  MISS %:  0.0403794   MPKI: 0.03656
DTLB LOAD TRANSLATION ACCESS:   18108251  HIT:   18100939  MISS:       7312  HIT %:    99.9596  MISS %:  0.0403794   MPKI: 0.03656
DTLB PREFETCH  REQUESTED:          0  ISSUED:          0  USEFUL:          0  USELESS:          0
DTLB USEFUL LOAD PREFETCHES:          0 PREFETCH ISSUED TO LOWER LEVEL:          0  ACCURACY: -nan
DTLB TIMELY PREFETCHES:          0 LATE PREFETCHES: 0 DROPPED PREFETCHES: 0
DTLB PREFETCHES SAME FILL-ORIGIN LEVEL: 0 DIFFERENT FILL-ORIGIN LEVEL: 0
DTLB AVERAGE MISS LATENCY: 119.794 cycles
DTLB RQ	ACCESS:   18632957	FORWARD:          0	MERGED:     524086	TO_CACHE:   18108871

STLB TOTAL     ACCESS:   11281705  HIT:   11274393  MISS:       7312  HIT %:    99.9352  MISS %:  0.0648129   MPKI: 0.03656
STLB LOAD TRANSLATION ACCESS:       7312  HIT:          0  MISS:       7312  HIT %:          0  MISS %:        100   MPKI: 0.03656
STLB TRANSLATION FROM L1D PREFETCHER ACCESS:   11274393  HIT:   11274393  MISS:          0  HIT %:        100  MISS %:          0   MPKI: 0
STLB PREFETCH  REQUESTED:          0  ISSUED:          0  USEFUL:          0  USELESS:          0
STLB USEFUL LOAD PREFETCHES:          0 PREFETCH ISSUED TO LOWER LEVEL:          0  ACCURACY: -nan
STLB TIMELY PREFETCHES:          0 LATE PREFETCHES: 1535 DROPPED PREFETCHES: 1043272
STLB PREFETCHES SAME FILL-ORIGIN LEVEL: 0 DIFFERENT FILL-ORIGIN LEVEL: 0
STLB AVERAGE MISS LATENCY: 108.473 cycles
STLB RQ	ACCESS:   66678784	FORWARD:          0	MERGED:   54284294	TO_CACHE:   12394490

STLB Hit, L1D data hit: 0
STLB Hit, L2C data hit: 0
STLB Hit, LLC data hit: 0
STLB Hit, LLC data miss: 0
STLB STLB hints to L2: 0
L1D TOTAL     ACCESS:   76822925  HIT:   76354974  MISS:     467951  HIT %:    99.3909  MISS %:   0.609129   MPKI: 2.33975
L1D LOAD      ACCESS:   14528937  HIT:   14521555  MISS:       7382  HIT %:    99.9492  MISS %:  0.0508089   MPKI: 0.03691
L1D RFO       ACCESS:    4061665  HIT:    4061665  MISS:          0  HIT %:        100  MISS %:          0   MPKI: 0
L1D PREFETCH  ACCESS:   58232323  HIT:   57771754  MISS:     460569  HIT %:    99.2091  MISS %:   0.790916   MPKI: 2.30285
L1D PREFETCH  REQUESTED:  179145512  ISSUED:  179145512  USEFUL:     460581  USELESS:          0
L1D USEFUL LOAD PREFETCHES:     460581 PREFETCH ISSUED TO LOWER LEVEL:    2449198  ACCURACY: 18.8054
L1D TIMELY PREFETCHES:     460581 LATE PREFETCHES: 4044 DROPPED PREFETCHES: 2982830
L1D PREFETCHES SAME FILL-ORIGIN LEVEL: 464635 DIFFERENT FILL-ORIGIN LEVEL: 1984563
L1D AVERAGE MISS LATENCY: 183.667 cycles
L1D RQ	ACCESS:   29949661	FORWARD:          0	MERGED:   15378515	TO_CACHE:   14571146
L1D WQ	ACCESS:    4061811	FORWARD:          0	MERGED:          0	TO_CACHE:    4061811
L1D PQ	ACCESS:  112474041	FORWARD:          0	MERGED:   45802570	TO_CACHE:   66671471

L1D UNIQUE REGIONS ACCESSED: 0
L1D REGIONS CONFLICTS: 0
L1D Cross Page Prefetch Requests: 14863176
L1D Same Page Prefetch Requests: 155321958
L1D ROI Sum of L1D PQ occupancy: 870446429
L1D PREFETCHES PUSHED FROM L2C: 0
L1I TOTAL     ACCESS:   33211454  HIT:   33211454  MISS:          0  HIT %:        100  MISS %:          0   MPKI: 0
L1I LOAD      ACCESS:   33211454  HIT:   33211454  MISS:          0  HIT %:        100  MISS %:          0   MPKI: 0
L1I PREFETCH  REQUESTED:          0  ISSUED:          0  USEFUL:          0  USELESS:          0
L1I USEFUL LOAD PREFETCHES:          0 PREFETCH ISSUED TO LOWER LEVEL:          0  ACCURACY: -nan
L1I TIMELY PREFETCHES:          0 LATE PREFETCHES: 0 DROPPED PREFETCHES: 0
L1I PREFETCHES SAME FILL-ORIGIN LEVEL: 0 DIFFERENT FILL-ORIGIN LEVEL: 0
L1I AVERAGE MISS LATENCY: -nan cycles
L1I RQ	ACCESS:   80322296	FORWARD:          0	MERGED:   47109669	TO_CACHE:   33212627

BTB TOTAL     ACCESS:   59897224  HIT:   59897222  MISS:          2  HIT %:        100  MISS %: 3.33905e-06   MPKI: 1e-05
BTB BRANCH_DIRECT_JUMP	ACCESS:          0  HIT:          0  MISS:          0
BTB BRANCH_INDIRECT	ACCESS:          0  HIT:          0  MISS:          0
BTB BRANCH_CONDITIONAL	ACCESS:   59897224  HIT:   59897222  MISS:          2
BTB BRANCH_DIRECT_CALL	ACCESS:          0  HIT:          0  MISS:          0
BTB BRANCH_INDIRECT_CALL	ACCESS:          0  HIT:          0  MISS:          0
BTB BRANCH_RETURN	ACCESS:          0  HIT:          0  MISS:          0
BTB BRANCH_OTHER ACCESS:          0  HIT:          0  MISS:          0

L2C TOTAL     ACCESS:    3080786  HIT:    2403349  MISS:     677437  HIT %:    78.0109  MISS %:    21.9891   MPKI: 3.38719
L2C LOAD      ACCESS:       3338  HIT:          0  MISS:       3338  HIT %:          0  MISS %:        100   MPKI: 0.01669
L2C DATA LOAD MPKI: 0.01669
L2C INSTRUCTION LOAD MPKI: 0
L2C PREFETCH  ACCESS:    1557378  HIT:    1092767  MISS:     464611  HIT %:    70.1671  MISS %:    29.8329   MPKI: 2.32306
L2C DATA PREFETCH MPKI: 2.32306
L2C INSTRUCTION PREFETCH MPKI: 0
L2C WRITEBACK ACCESS:     467951  HIT:     259392  MISS:     208559  HIT %:    55.4314  MISS %:    44.5686   MPKI: 1.04279
L2C LOAD TRANSLATION ACCESS:       7312  HIT:       7312  MISS:          0  HIT %:        100  MISS %:          0   MPKI: 0
L2C TRANSLATION FROM L1D PREFETCHER ACCESS:    1044807  HIT:    1043878  MISS:        929  HIT %:    99.9111  MISS %:  0.0889159   MPKI: 0.004645
L2C PREFETCH  REQUESTED:          0  ISSUED:          0  USEFUL:        929  USELESS:     464766
L2C USEFUL LOAD PREFETCHES:        929 PREFETCH ISSUED TO LOWER LEVEL:     464633  ACCURACY: 0.199943
L2C TIMELY PREFETCHES:        929 LATE PREFETCHES: 0 DROPPED PREFETCHES: 0
L2C PREFETCHES SAME FILL-ORIGIN LEVEL: 93423 DIFFERENT FILL-ORIGIN LEVEL: 0
L2C AVERAGE MISS LATENCY: 148.205 cycles
L2C RQ	ACCESS:    1055459	FORWARD:          0	MERGED:          0	TO_CACHE:    1055459
L2C WQ	ACCESS:     467974	FORWARD:          0	MERGED:          0	TO_CACHE:     467974
L2C PQ	ACCESS:    2449198	FORWARD:          0	MERGED:        499	TO_CACHE:    2448699

L2C Instructions Evicting Data 0
L2C Translations Evicting Data 930
L2C Data Evicting Data 467182
L2C Instructions Evicting Instructions 0
L2C Translations Evicting Instructions 0
L2C Data Evicting Instructions 0
L2C Instructions Evicting Translations 0
L2C Translations Evicting Translations 0
L2C Data Evicting Translations 790
L2C Dense regions hint from L2: 0
PSCL5 TOTAL     ACCESS:    1052119  HIT:    1052119  MISS:          0  HIT %:        100  MISS %:          0   MPKI: 0
PSCL5 LOAD TRANSLATION ACCESS:       7312  HIT:       7312  MISS:          0  HIT %:        100  MISS %:          0   MPKI: 0
PSCL5 TRANSLATION FROM L1D PREFETCHER ACCESS:    1044807  HIT:    1044807  MISS:          0  HIT %:        100  MISS %:          0   MPKI: 0
PSCL5 PREFETCH  REQUESTED:          0  ISSUED:          0  USEFUL:          0  USELESS:          0
PSCL5 USEFUL LOAD PREFETCHES:          0 PREFETCH ISSUED TO LOWER LEVEL:          0  ACCURACY: -nan
PSCL5 TIMELY PREFETCHES:          0 LATE PREFETCHES: 0 DROPPED PREFETCHES: 0
PSCL5 PREFETCHES SAME FILL-ORIGIN LEVEL: 0 DIFFERENT FILL-ORIGIN LEVEL: 0

PSCL4 TOTAL     ACCESS:    1052119  HIT:    1052119  MISS:          0  HIT %:        100  MISS %:          0   MPKI: 0
PSCL4 LOAD TRANSLATION ACCESS:       7312  HIT:       7312  MISS:          0  HIT %:        100  MISS %:          0   MPKI: 0
PSCL4 TRANSLATION FROM L1D PREFETCHER ACCESS:    1044807  HIT:    1044807  MISS:          0  HIT %:        100  MISS %:          0   MPKI: 0
PSCL4 PREFETCH  REQUESTED:          0  ISSUED:          0  USEFUL:          0  USELESS:          0
PSCL4 USEFUL LOAD PREFETCHES:          0 PREFETCH ISSUED TO LOWER LEVEL:          0  ACCURACY: -nan
PSCL4 TIMELY PREFETCHES:          0 LATE PREFETCHES: 0 DROPPED PREFETCHES: 0
PSCL4 PREFETCHES SAME FILL-ORIGIN LEVEL: 0 DIFFERENT FILL-ORIGIN LEVEL: 0

PSCL3 TOTAL     ACCESS:    1052119  HIT:    1052119  MISS:          0  HIT %:        100  MISS %:          0   MPKI: 0
PSCL3 LOAD TRANSLATION ACCESS:       7312  HIT:       7312  MISS:          0  HIT %:        100  MISS %:          0   MPKI: 0
PSCL3 TRANSLATION FROM L1D PREFETCHER ACCESS:    1044807  HIT:    1044807  MISS:          0  HIT %:        100  MISS %:          0   MPKI: 0
PSCL3 PREFETCH  REQUESTED:          0  ISSUED:          0  USEFUL:          0  USELESS:          0
PSCL3 USEFUL LOAD PREFETCHES:          0 PREFETCH ISSUED TO LOWER LEVEL:          0  ACCURACY: -nan
PSCL3 TIMELY PREFETCHES:          0 LATE PREFETCHES: 0 DROPPED PREFETCHES: 0
PSCL3 PREFETCHES SAME FILL-ORIGIN LEVEL: 0 DIFFERENT FILL-ORIGIN LEVEL: 0

PSCL2 TOTAL     ACCESS:    1050122  HIT:    1050107  MISS:         15  HIT %:    99.9986  MISS %: 0.00142841   MPKI: 7.5e-05
PSCL2 LOAD TRANSLATION ACCESS:       7312  HIT:       7297  MISS:         15  HIT %:    99.7949  MISS %:   0.205142   MPKI: 7.5e-05
PSCL2 TRANSLATION FROM L1D PREFETCHER ACCESS:    1042810  HIT:    1042810  MISS:          0  HIT %:        100  MISS %:          0   MPKI: 0
PSCL2 PREFETCH  REQUESTED:          0  ISSUED:          0  USEFUL:          0  USELESS:          0
PSCL2 USEFUL LOAD PREFETCHES:          0 PREFETCH ISSUED TO LOWER LEVEL:          0  ACCURACY: -nan
PSCL2 TIMELY PREFETCHES:          0 LATE PREFETCHES: 0 DROPPED PREFETCHES: 0
PSCL2 PREFETCHES SAME FILL-ORIGIN LEVEL: 0 DIFFERENT FILL-ORIGIN LEVEL: 0

LLC TOTAL     ACCESS:     936811  HIT:     421161  MISS:     515650  HIT %:    44.9569  MISS %:    55.0431   MPKI: 2.57825
LLC LOAD      ACCESS:       3338  HIT:          0  MISS:       3338  HIT %:          0  MISS %:        100   MPKI: 0.01669
LLC PREFETCH  ACCESS:     464612  HIT:          0  MISS:     464612  HIT %:          0  MISS %:        100   MPKI: 2.32306
LLC WRITEBACK ACCESS:     467932  HIT:     421158  MISS:      46774  HIT %:    90.0041  MISS %:     9.9959   MPKI: 0.23387
LLC TRANSLATION FROM L1D PREFETCHER ACCESS:        929  HIT:          3  MISS:        926  HIT %:   0.322928  MISS %:    99.6771   MPKI: 0.00463
LLC PREFETCH  REQUESTED:          0  ISSUED:          0  USEFUL:          0  USELESS:    1865340
LLC USEFUL LOAD PREFETCHES:          0 PREFETCH ISSUED TO LOWER LEVEL:    1858564  ACCURACY: 0
LLC TIMELY PREFETCHES:          0 LATE PREFETCHES: 0 DROPPED PREFETCHES: 0
LLC PREFETCHES SAME FILL-ORIGIN LEVEL: 0 DIFFERENT FILL-ORIGIN LEVEL: 0
LLC AVERAGE MISS LATENCY: 668.47 cycles
LLC RQ	ACCESS:      17070	FORWARD:          0	MERGED:          0	TO_CACHE:      17070
LLC WQ	ACCESS:    1871980	FORWARD:          0	MERGED:          0	TO_CACHE:    1871980
LLC PQ	ACCESS:    1858564	FORWARD:          0	MERGED:          0	TO_CACHE:    1858564

LLC Dense regions hint to LLC: 0

RAW hits: 0
Loads Generated: 29948615
Loads sent to L1D: 29948613
Stores Generated: 4061664
Stores sent to L1D: 4061664
Major fault: 0 Minor fault: 9164
Allocated PAGES: 36656

DRAM Statistics
 CHANNEL 0
 RQ ROW_BUFFER_HIT:     384236  ROW_BUFFER_MISS:    1491392
 DBUS_CONGESTED:       4021
 WQ ROW_BUFFER_HIT:    1061836  ROW_BUFFER_MISS:     816921  FULL:      28934

 AVG_CONGESTED_CYCLE: 5
 All warmup complete: 5
Channel 0 Bank busy for read cycles: 0
Channel 0 Bank busy for write cycles: 0
Channel 0
Rank 0
0banks busy for read cycles: 1924904
0banks busy for write cycles: 14240
1banks busy for read cycles: 42469208
1banks busy for write cycles: 1749526
2banks busy for read cycles: 40173629
2banks busy for write cycles: 1972576
3banks busy for read cycles: 17588855
3banks busy for write cycles: 2177545
4banks busy for read cycles: 6626095
4banks busy for write cycles: 2341211
5banks busy for read cycles: 1528063
5banks busy for write cycles: 2610337
6banks busy for read cycles: 649144
6banks busy for write cycles: 3183577
7banks busy for read cycles: 663995
7banks busy for write cycles: 6137992
8banks busy for read cycles: 3280406
8banks busy for write cycles: 36667034

CPU 0 Branch Prediction Accuracy: 99.676% MPKI: 1.03614 Average ROB Occupancy at Mispredict: 28.1151
Branch types
NOT_BRANCH: 136056053 68.0206%
BRANCH_DIRECT_JUMP: 0 0%
BRANCH_INDIRECT: 0 0%
BRANCH_CONDITIONAL: 63965913 31.9794%
BRANCH_DIRECT_CALL: 0 0%
BRANCH_INDIRECT_CALL: 0 0%
BRANCH_RETURN: 0 0%
BRANCH_OTHER: 0 0%


CPU 1 Branch Prediction Accuracy: 99.676% MPKI: 1.03616 Average ROB Occupancy at Mispredict: 28.114
Branch types
NOT_BRANCH: 136051403 68.0206%
BRANCH_DIRECT_JUMP: 0 0%
BRANCH_INDIRECT: 0 0%
BRANCH_CONDITIONAL: 63963724 31.9794%
BRANCH_DIRECT_CALL: 0 0%
BRANCH_INDIRECT_CALL: 0 0%
BRANCH_RETURN: 0 0%
BRANCH_OTHER: 0 0%


CPU 2 Branch Prediction Accuracy: 99.676% MPKI: 1.0362 Average ROB Occupancy at Mispredict: 28.1217
Branch types
NOT_BRANCH: 136041353 68.0207%
BRANCH_DIRECT_JUMP: 0 0%
BRANCH_INDIRECT: 0 0%
BRANCH_CONDITIONAL: 63959005 31.9795%
BRANCH_DIRECT_CALL: 0 0%
BRANCH_INDIRECT_CALL: 0 0%
BRANCH_RETURN: 0 0%
BRANCH_OTHER: 0 0%


CPU 3 Branch Prediction Accuracy: 99.676% MPKI: 1.03617 Average ROB Occupancy at Mispredict: 28.131
Branch types
NOT_BRANCH: 136045902 68.0206%
BRANCH_DIRECT_JUMP: 0 0%
BRANCH_INDIRECT: 0 0%
BRANCH_CONDITIONAL: 63961138 31.9794%
BRANCH_DIRECT_CALL: 0 0%
BRANCH_INDIRECT_CALL: 0 0%
BRANCH_RETURN: 0 0%
BRANCH_OTHER: 0 0%

DRAM PAGES: 1048576
Allocated PAGES: 36656
