
*** ChampSim Multicore Out-of-Order Simulator ***

Warmup Instructions: 50000000
Simulation Instructions: 200000000
Number of CPUs: 4
LLC sets: 8192
LLC ways: 16
Off-chip DRAM Size: 4096 MB Channels: 1 Width: 64-bit Data Rate: 6400 MT/s
CPU 0 runs ./traces/ligra/ligra_Components.com-lj.ungraph.gcc_6.3.0_O3.drop_3500M.length_250M.champsimtrace.xz
.xz
CPU 1 runs ./traces/ligra/ligra_Components.com-lj.ungraph.gcc_6.3.0_O3.drop_3500M.length_250M.champsimtrace.xz
.xz
CPU 2 runs ./traces/ligra/ligra_Components.com-lj.ungraph.gcc_6.3.0_O3.drop_3500M.length_250M.champsimtrace.xz
.xz
CPU 3 runs ./traces/ligra/ligra_Components.com-lj.ungraph.gcc_6.3.0_O3.drop_3500M.length_250M.champsimtrace.xz
.xz
BTB has LRU replacement policy
ITLB has LRU replacement policy
DTLB has LRU replacement policy
STLB has LRU replacement policy
L1I has LRU replacement policy
History Sets: 8
History Ways: 16
BERTI Size: 16
BERTI Stride Size: 8
L1D has LRU replacement policy
Initialize SRRIP state for L2C
Initialize DRRIP state for LLC
BTB has LRU replacement policy
ITLB has LRU replacement policy
DTLB has LRU replacement policy
STLB has LRU replacement policy
L1I has LRU replacement policy
History Sets: 8
History Ways: 16
BERTI Size: 16
BERTI Stride Size: 8
L1D has LRU replacement policy
Initialize SRRIP state for L2C
Initialize DRRIP state for LLC
BTB has LRU replacement policy
ITLB has LRU replacement policy
DTLB has LRU replacement policy
STLB has LRU replacement policy
L1I has LRU replacement policy
History Sets: 8
History Ways: 16
BERTI Size: 16
BERTI Stride Size: 8
L1D has LRU replacement policy
Initialize SRRIP state for L2C
Initialize DRRIP state for LLC
BTB has LRU replacement policy
ITLB has LRU replacement policy
DTLB has LRU replacement policy
STLB has LRU replacement policy
L1I has LRU replacement policy
History Sets: 8
History Ways: 16
BERTI Size: 16
BERTI Stride Size: 8
L1D has LRU replacement policy
Initialize SRRIP state for L2C
Initialize DRRIP state for LLC
Heartbeat CPU 0 instructions: 10000003 cycles: 3333345 heartbeat IPC: 2.99999 cumulative IPC: 2.99999 (Simulation time: 0 hr 1 min 54 sec) 
Heartbeat CPU 1 instructions: 10000003 cycles: 3333346 heartbeat IPC: 2.99999 cumulative IPC: 2.99999 (Simulation time: 0 hr 1 min 54 sec) 
Heartbeat CPU 2 instructions: 10000003 cycles: 3333347 heartbeat IPC: 2.99999 cumulative IPC: 2.99999 (Simulation time: 0 hr 1 min 54 sec) 
Heartbeat CPU 3 instructions: 10000003 cycles: 3333348 heartbeat IPC: 2.99999 cumulative IPC: 2.99999 (Simulation time: 0 hr 1 min 54 sec) 
Heartbeat CPU 0 instructions: 20000002 cycles: 6666678 heartbeat IPC: 3 cumulative IPC: 3 (Simulation time: 0 hr 3 min 46 sec) 
Heartbeat CPU 1 instructions: 20000002 cycles: 6666679 heartbeat IPC: 3 cumulative IPC: 2.99999 (Simulation time: 0 hr 3 min 46 sec) 
Heartbeat CPU 2 instructions: 20000002 cycles: 6666680 heartbeat IPC: 3 cumulative IPC: 2.99999 (Simulation time: 0 hr 3 min 46 sec) 
Heartbeat CPU 3 instructions: 20000002 cycles: 6666681 heartbeat IPC: 3 cumulative IPC: 2.99999 (Simulation time: 0 hr 3 min 46 sec) 
Heartbeat CPU 0 instructions: 30000001 cycles: 10000011 heartbeat IPC: 3 cumulative IPC: 3 (Simulation time: 0 hr 5 min 36 sec) 
Heartbeat CPU 1 instructions: 30000001 cycles: 10000012 heartbeat IPC: 3 cumulative IPC: 3 (Simulation time: 0 hr 5 min 36 sec) 
Heartbeat CPU 2 instructions: 30000001 cycles: 10000013 heartbeat IPC: 3 cumulative IPC: 3 (Simulation time: 0 hr 5 min 36 sec) 
Heartbeat CPU 3 instructions: 30000001 cycles: 10000014 heartbeat IPC: 3 cumulative IPC: 3 (Simulation time: 0 hr 5 min 36 sec) 
Heartbeat CPU 0 instructions: 40000001 cycles: 13333345 heartbeat IPC: 3 cumulative IPC: 3 (Simulation time: 0 hr 7 min 22 sec) 
Heartbeat CPU 1 instructions: 40000001 cycles: 13333346 heartbeat IPC: 3 cumulative IPC: 3 (Simulation time: 0 hr 7 min 22 sec) 
Heartbeat CPU 2 instructions: 40000001 cycles: 13333347 heartbeat IPC: 3 cumulative IPC: 3 (Simulation time: 0 hr 7 min 22 sec) 
Heartbeat CPU 3 instructions: 40000001 cycles: 13333348 heartbeat IPC: 3 cumulative IPC: 3 (Simulation time: 0 hr 7 min 22 sec) 
Heartbeat CPU 0 instructions: 50000001 cycles: 16666678 heartbeat IPC: 3 cumulative IPC: 3 (Simulation time: 0 hr 9 min 14 sec) 
Heartbeat CPU 1 instructions: 50000001 cycles: 16666679 heartbeat IPC: 3 cumulative IPC: 3 (Simulation time: 0 hr 9 min 14 sec) 
Heartbeat CPU 2 instructions: 50000001 cycles: 16666680 heartbeat IPC: 3 cumulative IPC: 3 (Simulation time: 0 hr 9 min 14 sec) 
Heartbeat CPU 3 instructions: 50000001 cycles: 16666681 heartbeat IPC: 3 cumulative IPC: 3 (Simulation time: 0 hr 9 min 14 sec) 

Warmup complete CPU 0 instructions: 50000010 cycles: 16666681 (Simulation time: 0 hr 9 min 14 sec) 
Warmup complete CPU 1 instructions: 50000006 cycles: 16666681 (Simulation time: 0 hr 9 min 14 sec) 
Warmup complete CPU 2 instructions: 50000005 cycles: 16666681 (Simulation time: 0 hr 9 min 14 sec) 
Warmup complete CPU 3 instructions: 50000001 cycles: 16666681 (Simulation time: 0 hr 9 min 14 sec) 

Heartbeat CPU 0 instructions: 60000001 cycles: 25379493 heartbeat IPC: 1.14773 cumulative IPC: 1.14773 (Simulation time: 0 hr 12 min 7 sec) 
Heartbeat CPU 1 instructions: 60000001 cycles: 25381069 heartbeat IPC: 1.14753 cumulative IPC: 1.14753 (Simulation time: 0 hr 12 min 7 sec) 
Heartbeat CPU 2 instructions: 60000001 cycles: 25384461 heartbeat IPC: 1.14708 cumulative IPC: 1.14708 (Simulation time: 0 hr 12 min 7 sec) 
Heartbeat CPU 3 instructions: 60000001 cycles: 25387214 heartbeat IPC: 1.14672 cumulative IPC: 1.14672 (Simulation time: 0 hr 12 min 7 sec) 
Heartbeat CPU 0 instructions: 70000000 cycles: 34126275 heartbeat IPC: 1.14328 cumulative IPC: 1.1455 (Simulation time: 0 hr 15 min 18 sec) 
Heartbeat CPU 1 instructions: 70000000 cycles: 34128725 heartbeat IPC: 1.14316 cumulative IPC: 1.14534 (Simulation time: 0 hr 15 min 18 sec) 
Heartbeat CPU 2 instructions: 70000000 cycles: 34131785 heartbeat IPC: 1.14321 cumulative IPC: 1.14514 (Simulation time: 0 hr 15 min 18 sec) 
Heartbeat CPU 3 instructions: 70000000 cycles: 34135578 heartbeat IPC: 1.14307 cumulative IPC: 1.14489 (Simulation time: 0 hr 15 min 18 sec) 
Heartbeat CPU 0 instructions: 80000000 cycles: 42830913 heartbeat IPC: 1.14881 cumulative IPC: 1.1466 (Simulation time: 0 hr 18 min 33 sec) 
Heartbeat CPU 1 instructions: 80000000 cycles: 42836366 heartbeat IPC: 1.14842 cumulative IPC: 1.14636 (Simulation time: 0 hr 18 min 33 sec) 
Heartbeat CPU 2 instructions: 80000000 cycles: 42838354 heartbeat IPC: 1.14856 cumulative IPC: 1.14628 (Simulation time: 0 hr 18 min 33 sec) 
Heartbeat CPU 3 instructions: 80000000 cycles: 42844806 heartbeat IPC: 1.14821 cumulative IPC: 1.14599 (Simulation time: 0 hr 18 min 34 sec) 
Heartbeat CPU 0 instructions: 90000003 cycles: 51577083 heartbeat IPC: 1.14336 cumulative IPC: 1.14579 (Simulation time: 0 hr 21 min 21 sec) 
Heartbeat CPU 1 instructions: 90000003 cycles: 51581229 heartbeat IPC: 1.14353 cumulative IPC: 1.14565 (Simulation time: 0 hr 21 min 21 sec) 
Heartbeat CPU 2 instructions: 90000003 cycles: 51584397 heartbeat IPC: 1.14337 cumulative IPC: 1.14555 (Simulation time: 0 hr 21 min 21 sec) 
Heartbeat CPU 3 instructions: 90000003 cycles: 51590685 heartbeat IPC: 1.1434 cumulative IPC: 1.14534 (Simulation time: 0 hr 21 min 21 sec) 
Heartbeat CPU 0 instructions: 100000002 cycles: 60308790 heartbeat IPC: 1.14525 cumulative IPC: 1.14568 (Simulation time: 0 hr 24 min 27 sec) 
Heartbeat CPU 1 instructions: 100000002 cycles: 60312471 heartbeat IPC: 1.14531 cumulative IPC: 1.14559 (Simulation time: 0 hr 24 min 27 sec) 
Heartbeat CPU 2 instructions: 100000002 cycles: 60316829 heartbeat IPC: 1.14516 cumulative IPC: 1.14547 (Simulation time: 0 hr 24 min 27 sec) 
Heartbeat CPU 3 instructions: 100000002 cycles: 60319550 heartbeat IPC: 1.14562 cumulative IPC: 1.1454 (Simulation time: 0 hr 24 min 27 sec) 
Heartbeat CPU 0 instructions: 110000000 cycles: 69051348 heartbeat IPC: 1.14383 cumulative IPC: 1.14537 (Simulation time: 0 hr 27 min 29 sec) 
Heartbeat CPU 1 instructions: 110000000 cycles: 69054986 heartbeat IPC: 1.14384 cumulative IPC: 1.14529 (Simulation time: 0 hr 27 min 29 sec) 
Heartbeat CPU 2 instructions: 110000000 cycles: 69059427 heartbeat IPC: 1.14382 cumulative IPC: 1.1452 (Simulation time: 0 hr 27 min 29 sec) 
Heartbeat CPU 3 instructions: 110000000 cycles: 69064331 heartbeat IPC: 1.14354 cumulative IPC: 1.14509 (Simulation time: 0 hr 27 min 29 sec) 
Heartbeat CPU 0 instructions: 120000002 cycles: 77817362 heartbeat IPC: 1.14077 cumulative IPC: 1.14471 (Simulation time: 0 hr 30 min 17 sec) 
Heartbeat CPU 1 instructions: 120000002 cycles: 77821058 heartbeat IPC: 1.14076 cumulative IPC: 1.14464 (Simulation time: 0 hr 30 min 17 sec) 
Heartbeat CPU 2 instructions: 120000002 cycles: 77824805 heartbeat IPC: 1.14085 cumulative IPC: 1.14457 (Simulation time: 0 hr 30 min 17 sec) 
Heartbeat CPU 3 instructions: 120000002 cycles: 77829115 heartbeat IPC: 1.14093 cumulative IPC: 1.14449 (Simulation time: 0 hr 30 min 17 sec) 
Heartbeat CPU 0 instructions: 130000001 cycles: 86595231 heartbeat IPC: 1.13923 cumulative IPC: 1.14402 (Simulation time: 0 hr 33 min 2 sec) 
Heartbeat CPU 1 instructions: 130000001 cycles: 86598924 heartbeat IPC: 1.13923 cumulative IPC: 1.14396 (Simulation time: 0 hr 33 min 2 sec) 
Heartbeat CPU 2 instructions: 130000001 cycles: 86603817 heartbeat IPC: 1.13908 cumulative IPC: 1.14388 (Simulation time: 0 hr 33 min 2 sec) 
Heartbeat CPU 3 instructions: 130000001 cycles: 86611745 heartbeat IPC: 1.13861 cumulative IPC: 1.14375 (Simulation time: 0 hr 33 min 3 sec) 
Heartbeat CPU 0 instructions: 140000000 cycles: 95371580 heartbeat IPC: 1.13943 cumulative IPC: 1.14351 (Simulation time: 0 hr 36 min 3 sec) 
Heartbeat CPU 1 instructions: 140000000 cycles: 95376459 heartbeat IPC: 1.13927 cumulative IPC: 1.14344 (Simulation time: 0 hr 36 min 3 sec) 
Heartbeat CPU 2 instructions: 140000000 cycles: 95380456 heartbeat IPC: 1.13939 cumulative IPC: 1.14338 (Simulation time: 0 hr 36 min 4 sec) 
Heartbeat CPU 3 instructions: 140000000 cycles: 95388821 heartbeat IPC: 1.13933 cumulative IPC: 1.14326 (Simulation time: 0 hr 36 min 4 sec) 
Heartbeat CPU 0 instructions: 150000002 cycles: 104137531 heartbeat IPC: 1.14078 cumulative IPC: 1.14324 (Simulation time: 0 hr 38 min 50 sec) 
Heartbeat CPU 1 instructions: 150000002 cycles: 104143237 heartbeat IPC: 1.14067 cumulative IPC: 1.14316 (Simulation time: 0 hr 38 min 50 sec) 
Heartbeat CPU 2 instructions: 150000002 cycles: 104146201 heartbeat IPC: 1.1408 cumulative IPC: 1.14312 (Simulation time: 0 hr 38 min 50 sec) 
Heartbeat CPU 3 instructions: 150000002 cycles: 104154279 heartbeat IPC: 1.14084 cumulative IPC: 1.14302 (Simulation time: 0 hr 38 min 50 sec) 
Heartbeat CPU 0 instructions: 160000000 cycles: 112906743 heartbeat IPC: 1.14035 cumulative IPC: 1.14298 (Simulation time: 0 hr 41 min 55 sec) 
Heartbeat CPU 1 instructions: 160000000 cycles: 112911674 heartbeat IPC: 1.14045 cumulative IPC: 1.14292 (Simulation time: 0 hr 41 min 55 sec) 
Heartbeat CPU 2 instructions: 160000000 cycles: 112916985 heartbeat IPC: 1.14015 cumulative IPC: 1.14285 (Simulation time: 0 hr 41 min 55 sec) 
Heartbeat CPU 3 instructions: 160000000 cycles: 112927706 heartbeat IPC: 1.13981 cumulative IPC: 1.14273 (Simulation time: 0 hr 41 min 55 sec) 
Heartbeat CPU 0 instructions: 170000001 cycles: 121583023 heartbeat IPC: 1.15257 cumulative IPC: 1.14377 (Simulation time: 0 hr 45 min 0 sec) 
Heartbeat CPU 1 instructions: 170000001 cycles: 121589147 heartbeat IPC: 1.15241 cumulative IPC: 1.1437 (Simulation time: 0 hr 45 min 0 sec) 
Heartbeat CPU 2 instructions: 170000001 cycles: 121595263 heartbeat IPC: 1.1523 cumulative IPC: 1.14363 (Simulation time: 0 hr 45 min 1 sec) 
Heartbeat CPU 3 instructions: 170000001 cycles: 121607328 heartbeat IPC: 1.15212 cumulative IPC: 1.1435 (Simulation time: 0 hr 45 min 1 sec) 
Heartbeat CPU 0 instructions: 180000000 cycles: 130346273 heartbeat IPC: 1.14113 cumulative IPC: 1.14356 (Simulation time: 0 hr 47 min 44 sec) 
Heartbeat CPU 1 instructions: 180000000 cycles: 130349965 heartbeat IPC: 1.14145 cumulative IPC: 1.14353 (Simulation time: 0 hr 47 min 44 sec) 
Heartbeat CPU 2 instructions: 180000000 cycles: 130358327 heartbeat IPC: 1.14115 cumulative IPC: 1.14344 (Simulation time: 0 hr 47 min 45 sec) 
Heartbeat CPU 3 instructions: 180000000 cycles: 130370713 heartbeat IPC: 1.14111 cumulative IPC: 1.14332 (Simulation time: 0 hr 47 min 45 sec) 
Heartbeat CPU 0 instructions: 190000000 cycles: 139163127 heartbeat IPC: 1.13419 cumulative IPC: 1.14289 (Simulation time: 0 hr 50 min 26 sec) 
Heartbeat CPU 1 instructions: 190000000 cycles: 139166874 heartbeat IPC: 1.13418 cumulative IPC: 1.14286 (Simulation time: 0 hr 50 min 26 sec) 
Heartbeat CPU 2 instructions: 190000000 cycles: 139175533 heartbeat IPC: 1.13415 cumulative IPC: 1.14277 (Simulation time: 0 hr 50 min 27 sec) 
Heartbeat CPU 3 instructions: 190000000 cycles: 139187906 heartbeat IPC: 1.13415 cumulative IPC: 1.14266 (Simulation time: 0 hr 50 min 27 sec) 
Heartbeat CPU 0 instructions: 200000002 cycles: 148001418 heartbeat IPC: 1.13144 cumulative IPC: 1.14212 (Simulation time: 0 hr 53 min 16 sec) 
Heartbeat CPU 1 instructions: 200000002 cycles: 148005622 heartbeat IPC: 1.13138 cumulative IPC: 1.14208 (Simulation time: 0 hr 53 min 16 sec) 
Heartbeat CPU 2 instructions: 200000002 cycles: 148014784 heartbeat IPC: 1.13132 cumulative IPC: 1.142 (Simulation time: 0 hr 53 min 16 sec) 
Heartbeat CPU 3 instructions: 200000002 cycles: 148025484 heartbeat IPC: 1.13153 cumulative IPC: 1.14191 (Simulation time: 0 hr 53 min 16 sec) 
Heartbeat CPU 0 instructions: 210000000 cycles: 156816725 heartbeat IPC: 1.13439 cumulative IPC: 1.14163 (Simulation time: 0 hr 56 min 17 sec) 
Heartbeat CPU 1 instructions: 210000000 cycles: 156823832 heartbeat IPC: 1.13402 cumulative IPC: 1.14158 (Simulation time: 0 hr 56 min 17 sec) 
Heartbeat CPU 2 instructions: 210000000 cycles: 156833442 heartbeat IPC: 1.13396 cumulative IPC: 1.1415 (Simulation time: 0 hr 56 min 17 sec) 
Heartbeat CPU 3 instructions: 210000000 cycles: 156841901 heartbeat IPC: 1.13425 cumulative IPC: 1.14143 (Simulation time: 0 hr 56 min 18 sec) 
Heartbeat CPU 0 instructions: 220000000 cycles: 165720844 heartbeat IPC: 1.12308 cumulative IPC: 1.14052 (Simulation time: 0 hr 59 min 18 sec) 
Heartbeat CPU 1 instructions: 220000000 cycles: 165725896 heartbeat IPC: 1.12334 cumulative IPC: 1.14049 (Simulation time: 0 hr 59 min 18 sec) 
Heartbeat CPU 2 instructions: 220000000 cycles: 165730810 heartbeat IPC: 1.12393 cumulative IPC: 1.14045 (Simulation time: 0 hr 59 min 18 sec) 
Heartbeat CPU 3 instructions: 220000000 cycles: 165741182 heartbeat IPC: 1.12369 cumulative IPC: 1.14037 (Simulation time: 0 hr 59 min 18 sec) 
Heartbeat CPU 0 instructions: 230000002 cycles: 174517390 heartbeat IPC: 1.13681 cumulative IPC: 1.14032 (Simulation time: 1 hr 2 min 4 sec) 
Heartbeat CPU 1 instructions: 230000002 cycles: 174520310 heartbeat IPC: 1.13709 cumulative IPC: 1.1403 (Simulation time: 1 hr 2 min 4 sec) 
Heartbeat CPU 2 instructions: 230000002 cycles: 174525543 heartbeat IPC: 1.13704 cumulative IPC: 1.14026 (Simulation time: 1 hr 2 min 4 sec) 
Heartbeat CPU 3 instructions: 230000002 cycles: 174541931 heartbeat IPC: 1.13627 cumulative IPC: 1.14014 (Simulation time: 1 hr 2 min 4 sec) 
Heartbeat CPU 0 instructions: 240000000 cycles: 183295722 heartbeat IPC: 1.13917 cumulative IPC: 1.14026 (Simulation time: 1 hr 5 min 1 sec) 
Heartbeat CPU 1 instructions: 240000000 cycles: 183300195 heartbeat IPC: 1.13897 cumulative IPC: 1.14023 (Simulation time: 1 hr 5 min 1 sec) 
Heartbeat CPU 2 instructions: 240000000 cycles: 183305406 heartbeat IPC: 1.13897 cumulative IPC: 1.14019 (Simulation time: 1 hr 5 min 1 sec) 
Heartbeat CPU 3 instructions: 240000000 cycles: 183320129 heartbeat IPC: 1.13919 cumulative IPC: 1.14009 (Simulation time: 1 hr 5 min 2 sec) 
*** Reached end of trace for Core: 0 Repeating trace: ./traces/ligra/ligra_Components.com-lj.ungraph.gcc_6.3.0_O3.drop_3500M.length_250M.champsimtrace.xz
Heartbeat CPU 0 instructions: 250000001 cycles: 192033694 heartbeat IPC: 1.14443 cumulative IPC: 1.14047 (Simulation time: 1 hr 7 min 48 sec) 
Finished CPU 0 instructions: 200000001 cycles: 175367683 cumulative IPC: 1.14046 (Simulation time: 1 hr 7 min 48 sec) 
*** Reached end of trace for Core: 1 Repeating trace: ./traces/ligra/ligra_Components.com-lj.ungraph.gcc_6.3.0_O3.drop_3500M.length_250M.champsimtrace.xz
Heartbeat CPU 1 instructions: 250000001 cycles: 192038738 heartbeat IPC: 1.14436 cumulative IPC: 1.14043 (Simulation time: 1 hr 7 min 48 sec) 
Finished CPU 1 instructions: 200000001 cycles: 175372428 cumulative IPC: 1.14043 (Simulation time: 1 hr 7 min 48 sec) 
*** Reached end of trace for Core: 2 Repeating trace: ./traces/ligra/ligra_Components.com-lj.ungraph.gcc_6.3.0_O3.drop_3500M.length_250M.champsimtrace.xz
Heartbeat CPU 2 instructions: 250000001 cycles: 192049493 heartbeat IPC: 1.14363 cumulative IPC: 1.14036 (Simulation time: 1 hr 7 min 48 sec) 
Finished CPU 2 instructions: 200000002 cycles: 175383480 cumulative IPC: 1.14036 (Simulation time: 1 hr 7 min 48 sec) 
*** Reached end of trace for Core: 3 Repeating trace: ./traces/ligra/ligra_Components.com-lj.ungraph.gcc_6.3.0_O3.drop_3500M.length_250M.champsimtrace.xz
Heartbeat CPU 3 instructions: 250000001 cycles: 192060379 heartbeat IPC: 1.14413 cumulative IPC: 1.14029 (Simulation time: 1 hr 7 min 48 sec) 
Finished CPU 3 instructions: 200000000 cycles: 175393698 cumulative IPC: 1.14029 (Simulation time: 1 hr 7 min 48 sec) 

ChampSim completed all CPUs

Total Simulation Statistics (not including warmup)

CPU 0 cumulative IPC: 1.14046 instructions: 200029784 cycles: 175393698
ITLB TOTAL     ACCESS:   33184779  HIT:   33184779  MISS:          0  HIT %:        100  MISS %:          0   MPKI: 0
ITLB LOAD      ACCESS:          0  HIT:          0  MISS:          0  HIT %:       -nan  MISS %:       -nan   MPKI: 0
ITLB RFO       ACCESS:          0  HIT:          0  MISS:          0  HIT %:       -nan  MISS %:       -nan   MPKI: 0
ITLB PREFETCH  ACCESS:          0  HIT:          0  MISS:          0  HIT %:       -nan  MISS %:       -nan   MPKI: 0
ITLB WRITEBACK ACCESS:          0  HIT:          0  MISS:          0  HIT %:       -nan  MISS %:       -nan   MPKI: 0
DTLB TOTAL     ACCESS:   33847217  HIT:   33836036  MISS:      11181  HIT %:     99.967  MISS %:  0.0330337   MPKI: 0.0558967
DTLB LOAD      ACCESS:          0  HIT:          0  MISS:          0  HIT %:       -nan  MISS %:       -nan   MPKI: 0
DTLB RFO       ACCESS:          0  HIT:          0  MISS:          0  HIT %:       -nan  MISS %:       -nan   MPKI: 0
DTLB PREFETCH  ACCESS:          0  HIT:          0  MISS:          0  HIT %:       -nan  MISS %:       -nan   MPKI: 0
DTLB WRITEBACK ACCESS:          0  HIT:          0  MISS:          0  HIT %:       -nan  MISS %:       -nan   MPKI: 0
STLB TOTAL     ACCESS:   10474927  HIT:   10463745  MISS:      11182  HIT %:    99.8932  MISS %:    0.10675   MPKI: 0.0559017
STLB LOAD      ACCESS:          0  HIT:          0  MISS:          0  HIT %:       -nan  MISS %:       -nan   MPKI: 0
STLB RFO       ACCESS:          0  HIT:          0  MISS:          0  HIT %:       -nan  MISS %:       -nan   MPKI: 0
STLB PREFETCH  ACCESS:          0  HIT:          0  MISS:          0  HIT %:       -nan  MISS %:       -nan   MPKI: 0
STLB WRITEBACK ACCESS:          0  HIT:          0  MISS:          0  HIT %:       -nan  MISS %:       -nan   MPKI: 0
L1D TOTAL     ACCESS:   76449332  HIT:   75733904  MISS:     715428  HIT %:    99.0642  MISS %:    0.93582   MPKI: 3.57661
L1D LOAD      ACCESS:   12472234  HIT:   12466593  MISS:       5641  HIT %:    99.9548  MISS %:  0.0452285   MPKI: 0.0282008
L1D RFO       ACCESS:   12379487  HIT:   12021776  MISS:     357711  HIT %:    97.1105  MISS %:    2.88955   MPKI: 1.78829
L1D PREFETCH  ACCESS:   51597611  HIT:   51245535  MISS:     352076  HIT %:    99.3177  MISS %:   0.682349   MPKI: 1.76012
L1D WRITEBACK ACCESS:          0  HIT:          0  MISS:          0  HIT %:       -nan  MISS %:       -nan   MPKI: 0
L1I TOTAL     ACCESS:   33184778  HIT:   33184778  MISS:          0  HIT %:        100  MISS %:          0   MPKI: 0
L1I LOAD      ACCESS:   33184778  HIT:   33184778  MISS:          0  HIT %:        100  MISS %:          0   MPKI: 0
L1I RFO       ACCESS:          0  HIT:          0  MISS:          0  HIT %:       -nan  MISS %:       -nan   MPKI: 0
L1I PREFETCH  ACCESS:          0  HIT:          0  MISS:          0  HIT %:       -nan  MISS %:       -nan   MPKI: 0
L1I WRITEBACK ACCESS:          0  HIT:          0  MISS:          0  HIT %:       -nan  MISS %:       -nan   MPKI: 0
L2C TOTAL     ACCESS:    3640084  HIT:    2768241  MISS:     871843  HIT %:    76.0488  MISS %:    23.9512   MPKI: 4.35857
L2C LOAD      ACCESS:       2809  HIT:          0  MISS:       2809  HIT %:          0  MISS %:        100   MPKI: 0.0140429
L2C RFO       ACCESS:     357711  HIT:          0  MISS:     357711  HIT %:          0  MISS %:        100   MPKI: 1.78829
L2C PREFETCH  ACCESS:    1515490  HIT:    1160580  MISS:     354910  HIT %:    76.5812  MISS %:    23.4188   MPKI: 1.77429
L2C WRITEBACK ACCESS:     357716  HIT:     202834  MISS:     154882  HIT %:    56.7025  MISS %:    43.2975   MPKI: 0.774295
PSCL5 TOTAL     ACCESS:    1406359  HIT:    1406359  MISS:          0  HIT %:        100  MISS %:          0   MPKI: 0
PSCL5 LOAD      ACCESS:          0  HIT:          0  MISS:          0  HIT %:       -nan  MISS %:       -nan   MPKI: 0
PSCL5 RFO       ACCESS:          0  HIT:          0  MISS:          0  HIT %:       -nan  MISS %:       -nan   MPKI: 0
PSCL5 PREFETCH  ACCESS:          0  HIT:          0  MISS:          0  HIT %:       -nan  MISS %:       -nan   MPKI: 0
PSCL5 WRITEBACK ACCESS:          0  HIT:          0  MISS:          0  HIT %:       -nan  MISS %:       -nan   MPKI: 0
PSCL4 TOTAL     ACCESS:    1406359  HIT:    1406359  MISS:          0  HIT %:        100  MISS %:          0   MPKI: 0
PSCL4 LOAD      ACCESS:          0  HIT:          0  MISS:          0  HIT %:       -nan  MISS %:       -nan   MPKI: 0
PSCL4 RFO       ACCESS:          0  HIT:          0  MISS:          0  HIT %:       -nan  MISS %:       -nan   MPKI: 0
PSCL4 PREFETCH  ACCESS:          0  HIT:          0  MISS:          0  HIT %:       -nan  MISS %:       -nan   MPKI: 0
PSCL4 WRITEBACK ACCESS:          0  HIT:          0  MISS:          0  HIT %:       -nan  MISS %:       -nan   MPKI: 0
PSCL3 TOTAL     ACCESS:    1406359  HIT:    1406359  MISS:          0  HIT %:        100  MISS %:          0   MPKI: 0
PSCL3 LOAD      ACCESS:          0  HIT:          0  MISS:          0  HIT %:       -nan  MISS %:       -nan   MPKI: 0
PSCL3 RFO       ACCESS:          0  HIT:          0  MISS:          0  HIT %:       -nan  MISS %:       -nan   MPKI: 0
PSCL3 PREFETCH  ACCESS:          0  HIT:          0  MISS:          0  HIT %:       -nan  MISS %:       -nan   MPKI: 0
PSCL3 WRITEBACK ACCESS:          0  HIT:          0  MISS:          0  HIT %:       -nan  MISS %:       -nan   MPKI: 0
PSCL2 TOTAL     ACCESS:    1374558  HIT:    1374536  MISS:         22  HIT %:    99.9984  MISS %: 0.00160051   MPKI: 0.000109984
PSCL2 LOAD      ACCESS:          0  HIT:          0  MISS:          0  HIT %:       -nan  MISS %:       -nan   MPKI: 0
PSCL2 RFO       ACCESS:          0  HIT:          0  MISS:          0  HIT %:       -nan  MISS %:       -nan   MPKI: 0
PSCL2 PREFETCH  ACCESS:          0  HIT:          0  MISS:          0  HIT %:       -nan  MISS %:       -nan   MPKI: 0
PSCL2 WRITEBACK ACCESS:          0  HIT:          0  MISS:          0  HIT %:       -nan  MISS %:       -nan   MPKI: 0
LLC TOTAL     ACCESS:    1074344  HIT:     328160  MISS:     746184  HIT %:    30.5452  MISS %:    69.4548   MPKI: 3.73036
LLC LOAD      ACCESS:       2809  HIT:          0  MISS:       2809  HIT %:          0  MISS %:        100   MPKI: 0.0140429
LLC RFO       ACCESS:     357711  HIT:          0  MISS:     357711  HIT %:          0  MISS %:        100   MPKI: 1.78829
LLC PREFETCH  ACCESS:     354910  HIT:          0  MISS:     354910  HIT %:          0  MISS %:        100   MPKI: 1.77429
LLC WRITEBACK ACCESS:     357383  HIT:     328054  MISS:      29329  HIT %:    91.7934  MISS %:     8.2066   MPKI: 0.146623

RAW hits: 0
Loads Generated: 42781010
Loads sent to L1D: 42781008
Stores Generated: 22893557
Stores sent to L1D: 22893554

CPU 1 cumulative IPC: 1.14043 instructions: 200024298 cycles: 175393698
ITLB TOTAL     ACCESS:   33183953  HIT:   33183953  MISS:          0  HIT %:        100  MISS %:          0   MPKI: 0
ITLB LOAD      ACCESS:          0  HIT:          0  MISS:          0  HIT %:       -nan  MISS %:       -nan   MPKI: 0
ITLB RFO       ACCESS:          0  HIT:          0  MISS:          0  HIT %:       -nan  MISS %:       -nan   MPKI: 0
ITLB PREFETCH  ACCESS:          0  HIT:          0  MISS:          0  HIT %:       -nan  MISS %:       -nan   MPKI: 0
ITLB WRITEBACK ACCESS:          0  HIT:          0  MISS:          0  HIT %:       -nan  MISS %:       -nan   MPKI: 0
DTLB TOTAL     ACCESS:   33847427  HIT:   33836246  MISS:      11181  HIT %:     99.967  MISS %:  0.0330335   MPKI: 0.0558982
DTLB LOAD      ACCESS:          0  HIT:          0  MISS:          0  HIT %:       -nan  MISS %:       -nan   MPKI: 0
DTLB RFO       ACCESS:          0  HIT:          0  MISS:          0  HIT %:       -nan  MISS %:       -nan   MPKI: 0
DTLB PREFETCH  ACCESS:          0  HIT:          0  MISS:          0  HIT %:       -nan  MISS %:       -nan   MPKI: 0
DTLB WRITEBACK ACCESS:          0  HIT:          0  MISS:          0  HIT %:       -nan  MISS %:       -nan   MPKI: 0
STLB TOTAL     ACCESS:   10783908  HIT:   10772727  MISS:      11181  HIT %:    99.8963  MISS %:   0.103682   MPKI: 0.0558982
STLB LOAD      ACCESS:          0  HIT:          0  MISS:          0  HIT %:       -nan  MISS %:       -nan   MPKI: 0
STLB RFO       ACCESS:          0  HIT:          0  MISS:          0  HIT %:       -nan  MISS %:       -nan   MPKI: 0
STLB PREFETCH  ACCESS:          0  HIT:          0  MISS:          0  HIT %:       -nan  MISS %:       -nan   MPKI: 0
STLB WRITEBACK ACCESS:          0  HIT:          0  MISS:          0  HIT %:       -nan  MISS %:       -nan   MPKI: 0
L1D TOTAL     ACCESS:   77910260  HIT:   77194851  MISS:     715409  HIT %:    99.0818  MISS %:   0.918247   MPKI: 3.57661
L1D LOAD      ACCESS:   12472889  HIT:   12467212  MISS:       5677  HIT %:    99.9545  MISS %:  0.0455147   MPKI: 0.0283816
L1D RFO       ACCESS:   12452303  HIT:   12094601  MISS:     357702  HIT %:    97.1274  MISS %:    2.87258   MPKI: 1.78829
L1D PREFETCH  ACCESS:   52985068  HIT:   52633038  MISS:     352030  HIT %:    99.3356  MISS %:   0.664395   MPKI: 1.75994
L1D WRITEBACK ACCESS:          0  HIT:          0  MISS:          0  HIT %:       -nan  MISS %:       -nan   MPKI: 0
L1I TOTAL     ACCESS:   33183953  HIT:   33183953  MISS:          0  HIT %:        100  MISS %:          0   MPKI: 0
L1I LOAD      ACCESS:   33183953  HIT:   33183953  MISS:          0  HIT %:        100  MISS %:          0   MPKI: 0
L1I RFO       ACCESS:          0  HIT:          0  MISS:          0  HIT %:       -nan  MISS %:       -nan   MPKI: 0
L1I PREFETCH  ACCESS:          0  HIT:          0  MISS:          0  HIT %:       -nan  MISS %:       -nan   MPKI: 0
L1I WRITEBACK ACCESS:          0  HIT:          0  MISS:          0  HIT %:       -nan  MISS %:       -nan   MPKI: 0
L2C TOTAL     ACCESS:    3322610  HIT:    2447150  MISS:     875460  HIT %:    73.6514  MISS %:    26.3486   MPKI: 4.37677
L2C LOAD      ACCESS:       2877  HIT:          0  MISS:       2877  HIT %:          0  MISS %:        100   MPKI: 0.0143833
L2C RFO       ACCESS:     357702  HIT:          0  MISS:     357702  HIT %:          0  MISS %:        100   MPKI: 1.78829
L2C PREFETCH  ACCESS:    1597236  HIT:    1242405  MISS:     354831  HIT %:    77.7847  MISS %:    22.2153   MPKI: 1.77394
L2C WRITEBACK ACCESS:     357698  HIT:     199068  MISS:     158630  HIT %:    55.6525  MISS %:    44.3475   MPKI: 0.793054
PSCL5 TOTAL     ACCESS:    1007097  HIT:    1007097  MISS:          0  HIT %:        100  MISS %:          0   MPKI: 0
PSCL5 LOAD      ACCESS:          0  HIT:          0  MISS:          0  HIT %:       -nan  MISS %:       -nan   MPKI: 0
PSCL5 RFO       ACCESS:          0  HIT:          0  MISS:          0  HIT %:       -nan  MISS %:       -nan   MPKI: 0
PSCL5 PREFETCH  ACCESS:          0  HIT:          0  MISS:          0  HIT %:       -nan  MISS %:       -nan   MPKI: 0
PSCL5 WRITEBACK ACCESS:          0  HIT:          0  MISS:          0  HIT %:       -nan  MISS %:       -nan   MPKI: 0
PSCL4 TOTAL     ACCESS:    1007097  HIT:    1007097  MISS:          0  HIT %:        100  MISS %:          0   MPKI: 0
PSCL4 LOAD      ACCESS:          0  HIT:          0  MISS:          0  HIT %:       -nan  MISS %:       -nan   MPKI: 0
PSCL4 RFO       ACCESS:          0  HIT:          0  MISS:          0  HIT %:       -nan  MISS %:       -nan   MPKI: 0
PSCL4 PREFETCH  ACCESS:          0  HIT:          0  MISS:          0  HIT %:       -nan  MISS %:       -nan   MPKI: 0
PSCL4 WRITEBACK ACCESS:          0  HIT:          0  MISS:          0  HIT %:       -nan  MISS %:       -nan   MPKI: 0
PSCL3 TOTAL     ACCESS:    1007097  HIT:    1007097  MISS:          0  HIT %:        100  MISS %:          0   MPKI: 0
PSCL3 LOAD      ACCESS:          0  HIT:          0  MISS:          0  HIT %:       -nan  MISS %:       -nan   MPKI: 0
PSCL3 RFO       ACCESS:          0  HIT:          0  MISS:          0  HIT %:       -nan  MISS %:       -nan   MPKI: 0
PSCL3 PREFETCH  ACCESS:          0  HIT:          0  MISS:          0  HIT %:       -nan  MISS %:       -nan   MPKI: 0
PSCL3 WRITEBACK ACCESS:          0  HIT:          0  MISS:          0  HIT %:       -nan  MISS %:       -nan   MPKI: 0
PSCL2 TOTAL     ACCESS:    1005118  HIT:    1005096  MISS:         22  HIT %:    99.9978  MISS %:  0.0021888   MPKI: 0.000109987
PSCL2 LOAD      ACCESS:          0  HIT:          0  MISS:          0  HIT %:       -nan  MISS %:       -nan   MPKI: 0
PSCL2 RFO       ACCESS:          0  HIT:          0  MISS:          0  HIT %:       -nan  MISS %:       -nan   MPKI: 0
PSCL2 PREFETCH  ACCESS:          0  HIT:          0  MISS:          0  HIT %:       -nan  MISS %:       -nan   MPKI: 0
PSCL2 WRITEBACK ACCESS:          0  HIT:          0  MISS:          0  HIT %:       -nan  MISS %:       -nan   MPKI: 0
LLC TOTAL     ACCESS:    1073570  HIT:     328085  MISS:     745485  HIT %:    30.5602  MISS %:    69.4398   MPKI: 3.72697
LLC LOAD      ACCESS:       2877  HIT:          0  MISS:       2877  HIT %:          0  MISS %:        100   MPKI: 0.0143833
LLC RFO       ACCESS:     357702  HIT:          0  MISS:     357702  HIT %:          0  MISS %:        100   MPKI: 1.78829
LLC PREFETCH  ACCESS:     354831  HIT:          0  MISS:     354831  HIT %:          0  MISS %:        100   MPKI: 1.77394
LLC WRITEBACK ACCESS:     356740  HIT:     328083  MISS:      28657  HIT %:     91.967  MISS %:    8.03302   MPKI: 0.143268

RAW hits: 0
Loads Generated: 42779836
Loads sent to L1D: 42779835
Stores Generated: 22892928
Stores sent to L1D: 22892927

CPU 2 cumulative IPC: 1.14036 instructions: 200011677 cycles: 175393698
ITLB TOTAL     ACCESS:   33181946  HIT:   33181946  MISS:          0  HIT %:        100  MISS %:          0   MPKI: 0
ITLB LOAD      ACCESS:          0  HIT:          0  MISS:          0  HIT %:       -nan  MISS %:       -nan   MPKI: 0
ITLB RFO       ACCESS:          0  HIT:          0  MISS:          0  HIT %:       -nan  MISS %:       -nan   MPKI: 0
ITLB PREFETCH  ACCESS:          0  HIT:          0  MISS:          0  HIT %:       -nan  MISS %:       -nan   MPKI: 0
ITLB WRITEBACK ACCESS:          0  HIT:          0  MISS:          0  HIT %:       -nan  MISS %:       -nan   MPKI: 0
DTLB TOTAL     ACCESS:   33847421  HIT:   33836240  MISS:      11181  HIT %:     99.967  MISS %:  0.0330335   MPKI: 0.0559017
DTLB LOAD      ACCESS:          0  HIT:          0  MISS:          0  HIT %:       -nan  MISS %:       -nan   MPKI: 0
DTLB RFO       ACCESS:          0  HIT:          0  MISS:          0  HIT %:       -nan  MISS %:       -nan   MPKI: 0
DTLB PREFETCH  ACCESS:          0  HIT:          0  MISS:          0  HIT %:       -nan  MISS %:       -nan   MPKI: 0
DTLB WRITEBACK ACCESS:          0  HIT:          0  MISS:          0  HIT %:       -nan  MISS %:       -nan   MPKI: 0
STLB TOTAL     ACCESS:   10471222  HIT:   10460040  MISS:      11182  HIT %:    99.8932  MISS %:   0.106788   MPKI: 0.0559067
STLB LOAD      ACCESS:          0  HIT:          0  MISS:          0  HIT %:       -nan  MISS %:       -nan   MPKI: 0
STLB RFO       ACCESS:          0  HIT:          0  MISS:          0  HIT %:       -nan  MISS %:       -nan   MPKI: 0
STLB PREFETCH  ACCESS:          0  HIT:          0  MISS:          0  HIT %:       -nan  MISS %:       -nan   MPKI: 0
STLB WRITEBACK ACCESS:          0  HIT:          0  MISS:          0  HIT %:       -nan  MISS %:       -nan   MPKI: 0
L1D TOTAL     ACCESS:   76541653  HIT:   75826295  MISS:     715358  HIT %:    99.0654  MISS %:     0.9346   MPKI: 3.57658
L1D LOAD      ACCESS:   12472626  HIT:   12466924  MISS:       5702  HIT %:    99.9543  MISS %:  0.0457161   MPKI: 0.0285083
L1D RFO       ACCESS:   12410139  HIT:   12052460  MISS:     357679  HIT %:    97.1178  MISS %:    2.88215   MPKI: 1.78829
L1D PREFETCH  ACCESS:   51658888  HIT:   51306911  MISS:     351977  HIT %:    99.3187  MISS %:   0.681348   MPKI: 1.75978
L1D WRITEBACK ACCESS:          0  HIT:          0  MISS:          0  HIT %:       -nan  MISS %:       -nan   MPKI: 0
L1I TOTAL     ACCESS:   33181945  HIT:   33181945  MISS:          0  HIT %:        100  MISS %:          0   MPKI: 0
L1I LOAD      ACCESS:   33181945  HIT:   33181945  MISS:          0  HIT %:        100  MISS %:          0   MPKI: 0
L1I RFO       ACCESS:          0  HIT:          0  MISS:          0  HIT %:       -nan  MISS %:       -nan   MPKI: 0
L1I PREFETCH  ACCESS:          0  HIT:          0  MISS:          0  HIT %:       -nan  MISS %:       -nan   MPKI: 0
L1I WRITEBACK ACCESS:          0  HIT:          0  MISS:          0  HIT %:       -nan  MISS %:       -nan   MPKI: 0
L2C TOTAL     ACCESS:    3615105  HIT:    2737237  MISS:     877868  HIT %:    75.7167  MISS %:    24.2833   MPKI: 4.38908
L2C LOAD      ACCESS:       2993  HIT:          0  MISS:       2993  HIT %:          0  MISS %:        100   MPKI: 0.0149641
L2C RFO       ACCESS:     357679  HIT:          0  MISS:     357679  HIT %:          0  MISS %:        100   MPKI: 1.78829
L2C PREFETCH  ACCESS:    1563240  HIT:    1208538  MISS:     354702  HIT %:    77.3098  MISS %:    22.6902   MPKI: 1.77341
L2C WRITEBACK ACCESS:     357680  HIT:     196608  MISS:     161072  HIT %:    54.9676  MISS %:    45.0324   MPKI: 0.805313
PSCL5 TOTAL     ACCESS:    1333513  HIT:    1333513  MISS:          0  HIT %:        100  MISS %:          0   MPKI: 0
PSCL5 LOAD      ACCESS:          0  HIT:          0  MISS:          0  HIT %:       -nan  MISS %:       -nan   MPKI: 0
PSCL5 RFO       ACCESS:          0  HIT:          0  MISS:          0  HIT %:       -nan  MISS %:       -nan   MPKI: 0
PSCL5 PREFETCH  ACCESS:          0  HIT:          0  MISS:          0  HIT %:       -nan  MISS %:       -nan   MPKI: 0
PSCL5 WRITEBACK ACCESS:          0  HIT:          0  MISS:          0  HIT %:       -nan  MISS %:       -nan   MPKI: 0
PSCL4 TOTAL     ACCESS:    1333513  HIT:    1333513  MISS:          0  HIT %:        100  MISS %:          0   MPKI: 0
PSCL4 LOAD      ACCESS:          0  HIT:          0  MISS:          0  HIT %:       -nan  MISS %:       -nan   MPKI: 0
PSCL4 RFO       ACCESS:          0  HIT:          0  MISS:          0  HIT %:       -nan  MISS %:       -nan   MPKI: 0
PSCL4 PREFETCH  ACCESS:          0  HIT:          0  MISS:          0  HIT %:       -nan  MISS %:       -nan   MPKI: 0
PSCL4 WRITEBACK ACCESS:          0  HIT:          0  MISS:          0  HIT %:       -nan  MISS %:       -nan   MPKI: 0
PSCL3 TOTAL     ACCESS:    1333513  HIT:    1333513  MISS:          0  HIT %:        100  MISS %:          0   MPKI: 0
PSCL3 LOAD      ACCESS:          0  HIT:          0  MISS:          0  HIT %:       -nan  MISS %:       -nan   MPKI: 0
PSCL3 RFO       ACCESS:          0  HIT:          0  MISS:          0  HIT %:       -nan  MISS %:       -nan   MPKI: 0
PSCL3 PREFETCH  ACCESS:          0  HIT:          0  MISS:          0  HIT %:       -nan  MISS %:       -nan   MPKI: 0
PSCL3 WRITEBACK ACCESS:          0  HIT:          0  MISS:          0  HIT %:       -nan  MISS %:       -nan   MPKI: 0
PSCL2 TOTAL     ACCESS:    1330837  HIT:    1330815  MISS:         22  HIT %:    99.9983  MISS %:  0.0016531   MPKI: 0.000109994
PSCL2 LOAD      ACCESS:          0  HIT:          0  MISS:          0  HIT %:       -nan  MISS %:       -nan   MPKI: 0
PSCL2 RFO       ACCESS:          0  HIT:          0  MISS:          0  HIT %:       -nan  MISS %:       -nan   MPKI: 0
PSCL2 PREFETCH  ACCESS:          0  HIT:          0  MISS:          0  HIT %:       -nan  MISS %:       -nan   MPKI: 0
PSCL2 WRITEBACK ACCESS:          0  HIT:          0  MISS:          0  HIT %:       -nan  MISS %:       -nan   MPKI: 0
LLC TOTAL     ACCESS:    1075380  HIT:     330768  MISS:     744612  HIT %:    30.7582  MISS %:    69.2418   MPKI: 3.72284
LLC LOAD      ACCESS:       2993  HIT:          0  MISS:       2993  HIT %:          0  MISS %:        100   MPKI: 0.0149641
LLC RFO       ACCESS:     357679  HIT:          0  MISS:     357679  HIT %:          0  MISS %:        100   MPKI: 1.78829
LLC PREFETCH  ACCESS:     354702  HIT:          0  MISS:     354702  HIT %:          0  MISS %:        100   MPKI: 1.77341
LLC WRITEBACK ACCESS:     358584  HIT:     330768  MISS:      27816  HIT %:    92.2428  MISS %:    7.75718   MPKI: 0.139072

RAW hits: 0
Loads Generated: 42777135
Loads sent to L1D: 42777133
Stores Generated: 22891486
Stores sent to L1D: 22891483

CPU 3 cumulative IPC: 1.14029 instructions: 200000000 cycles: 175393698
ITLB TOTAL     ACCESS:   33180191  HIT:   33180191  MISS:          0  HIT %:        100  MISS %:          0   MPKI: 0
ITLB LOAD      ACCESS:          0  HIT:          0  MISS:          0  HIT %:       -nan  MISS %:       -nan   MPKI: 0
ITLB RFO       ACCESS:          0  HIT:          0  MISS:          0  HIT %:       -nan  MISS %:       -nan   MPKI: 0
ITLB PREFETCH  ACCESS:          0  HIT:          0  MISS:          0  HIT %:       -nan  MISS %:       -nan   MPKI: 0
ITLB WRITEBACK ACCESS:          0  HIT:          0  MISS:          0  HIT %:       -nan  MISS %:       -nan   MPKI: 0
DTLB TOTAL     ACCESS:   33844564  HIT:   33833387  MISS:      11177  HIT %:     99.967  MISS %:  0.0330245   MPKI: 0.055885
DTLB LOAD      ACCESS:          0  HIT:          0  MISS:          0  HIT %:       -nan  MISS %:       -nan   MPKI: 0
DTLB RFO       ACCESS:          0  HIT:          0  MISS:          0  HIT %:       -nan  MISS %:       -nan   MPKI: 0
DTLB PREFETCH  ACCESS:          0  HIT:          0  MISS:          0  HIT %:       -nan  MISS %:       -nan   MPKI: 0
DTLB WRITEBACK ACCESS:          0  HIT:          0  MISS:          0  HIT %:       -nan  MISS %:       -nan   MPKI: 0
STLB TOTAL     ACCESS:   10171968  HIT:   10160791  MISS:      11177  HIT %:    99.8901  MISS %:    0.10988   MPKI: 0.055885
STLB LOAD      ACCESS:          0  HIT:          0  MISS:          0  HIT %:       -nan  MISS %:       -nan   MPKI: 0
STLB RFO       ACCESS:          0  HIT:          0  MISS:          0  HIT %:       -nan  MISS %:       -nan   MPKI: 0
STLB PREFETCH  ACCESS:          0  HIT:          0  MISS:          0  HIT %:       -nan  MISS %:       -nan   MPKI: 0
STLB WRITEBACK ACCESS:          0  HIT:          0  MISS:          0  HIT %:       -nan  MISS %:       -nan   MPKI: 0
L1D TOTAL     ACCESS:   74872999  HIT:   74157686  MISS:     715313  HIT %:    99.0446  MISS %:   0.955368   MPKI: 3.57656
L1D LOAD      ACCESS:   12471396  HIT:   12465679  MISS:       5717  HIT %:    99.9542  MISS %:  0.0458409   MPKI: 0.028585
L1D RFO       ACCESS:   12456945  HIT:   12099288  MISS:     357657  HIT %:    97.1289  MISS %:    2.87115   MPKI: 1.78828
L1D PREFETCH  ACCESS:   49944658  HIT:   49592719  MISS:     351939  HIT %:    99.2953  MISS %:   0.704658   MPKI: 1.7597
L1D WRITEBACK ACCESS:          0  HIT:          0  MISS:          0  HIT %:       -nan  MISS %:       -nan   MPKI: 0
L1I TOTAL     ACCESS:   33180191  HIT:   33180191  MISS:          0  HIT %:        100  MISS %:          0   MPKI: 0
L1I LOAD      ACCESS:   33180191  HIT:   33180191  MISS:          0  HIT %:        100  MISS %:          0   MPKI: 0
L1I RFO       ACCESS:          0  HIT:          0  MISS:          0  HIT %:       -nan  MISS %:       -nan   MPKI: 0
L1I PREFETCH  ACCESS:          0  HIT:          0  MISS:          0  HIT %:       -nan  MISS %:       -nan   MPKI: 0
L1I WRITEBACK ACCESS:          0  HIT:          0  MISS:          0  HIT %:       -nan  MISS %:       -nan   MPKI: 0
L2C TOTAL     ACCESS:    3956965  HIT:    3074092  MISS:     882873  HIT %:    77.6881  MISS %:    22.3119   MPKI: 4.41437
L2C LOAD      ACCESS:       2996  HIT:          0  MISS:       2996  HIT %:          0  MISS %:        100   MPKI: 0.01498
L2C RFO       ACCESS:     357657  HIT:          0  MISS:     357657  HIT %:          0  MISS %:        100   MPKI: 1.78828
L2C PREFETCH  ACCESS:    1529872  HIT:    1175217  MISS:     354655  HIT %:     76.818  MISS %:     23.182   MPKI: 1.77327
L2C WRITEBACK ACCESS:     357657  HIT:     191511  MISS:     166146  HIT %:     53.546  MISS %:     46.454   MPKI: 0.83073
PSCL5 TOTAL     ACCESS:    1708784  HIT:    1708784  MISS:          0  HIT %:        100  MISS %:          0   MPKI: 0
PSCL5 LOAD      ACCESS:          0  HIT:          0  MISS:          0  HIT %:       -nan  MISS %:       -nan   MPKI: 0
PSCL5 RFO       ACCESS:          0  HIT:          0  MISS:          0  HIT %:       -nan  MISS %:       -nan   MPKI: 0
PSCL5 PREFETCH  ACCESS:          0  HIT:          0  MISS:          0  HIT %:       -nan  MISS %:       -nan   MPKI: 0
PSCL5 WRITEBACK ACCESS:          0  HIT:          0  MISS:          0  HIT %:       -nan  MISS %:       -nan   MPKI: 0
PSCL4 TOTAL     ACCESS:    1708784  HIT:    1708784  MISS:          0  HIT %:        100  MISS %:          0   MPKI: 0
PSCL4 LOAD      ACCESS:          0  HIT:          0  MISS:          0  HIT %:       -nan  MISS %:       -nan   MPKI: 0
PSCL4 RFO       ACCESS:          0  HIT:          0  MISS:          0  HIT %:       -nan  MISS %:       -nan   MPKI: 0
PSCL4 PREFETCH  ACCESS:          0  HIT:          0  MISS:          0  HIT %:       -nan  MISS %:       -nan   MPKI: 0
PSCL4 WRITEBACK ACCESS:          0  HIT:          0  MISS:          0  HIT %:       -nan  MISS %:       -nan   MPKI: 0
PSCL3 TOTAL     ACCESS:    1708784  HIT:    1708784  MISS:          0  HIT %:        100  MISS %:          0   MPKI: 0
PSCL3 LOAD      ACCESS:          0  HIT:          0  MISS:          0  HIT %:       -nan  MISS %:       -nan   MPKI: 0
PSCL3 RFO       ACCESS:          0  HIT:          0  MISS:          0  HIT %:       -nan  MISS %:       -nan   MPKI: 0
PSCL3 PREFETCH  ACCESS:          0  HIT:          0  MISS:          0  HIT %:       -nan  MISS %:       -nan   MPKI: 0
PSCL3 WRITEBACK ACCESS:          0  HIT:          0  MISS:          0  HIT %:       -nan  MISS %:       -nan   MPKI: 0
PSCL2 TOTAL     ACCESS:    1693379  HIT:    1693357  MISS:         22  HIT %:    99.9987  MISS %: 0.00129918   MPKI: 0.00011
PSCL2 LOAD      ACCESS:          0  HIT:          0  MISS:          0  HIT %:       -nan  MISS %:       -nan   MPKI: 0
PSCL2 RFO       ACCESS:          0  HIT:          0  MISS:          0  HIT %:       -nan  MISS %:       -nan   MPKI: 0
PSCL2 PREFETCH  ACCESS:          0  HIT:          0  MISS:          0  HIT %:       -nan  MISS %:       -nan   MPKI: 0
PSCL2 WRITEBACK ACCESS:          0  HIT:          0  MISS:          0  HIT %:       -nan  MISS %:       -nan   MPKI: 0
LLC TOTAL     ACCESS:    1074951  HIT:     331351  MISS:     743600  HIT %:    30.8248  MISS %:    69.1752   MPKI: 3.718
LLC LOAD      ACCESS:       2996  HIT:          0  MISS:       2996  HIT %:          0  MISS %:        100   MPKI: 0.01498
LLC RFO       ACCESS:     357657  HIT:          0  MISS:     357657  HIT %:          0  MISS %:        100   MPKI: 1.78828
LLC PREFETCH  ACCESS:     354655  HIT:          0  MISS:     354655  HIT %:          0  MISS %:        100   MPKI: 1.77327
LLC WRITEBACK ACCESS:     358224  HIT:     331350  MISS:      26874  HIT %:     92.498  MISS %:    7.50201   MPKI: 0.13437

RAW hits: 0
Loads Generated: 42774636
Loads sent to L1D: 42774636
Stores Generated: 22890146
Stores sent to L1D: 22890146

Region of Interest Statistics

CPU 0 cumulative IPC: 1.14046 instructions: 200000001 cycles: 175367683
ITLB TOTAL     ACCESS:   33179836  HIT:   33179836  MISS:          0  HIT %:        100  MISS %:          0   MPKI: 0
ITLB LOAD TRANSLATION ACCESS:   33179836  HIT:   33179836  MISS:          0  HIT %:        100  MISS %:          0   MPKI: 0
ITLB PREFETCH  REQUESTED:          0  ISSUED:          0  USEFUL:          0  USELESS:          0
ITLB USEFUL LOAD PREFETCHES:          0 PREFETCH ISSUED TO LOWER LEVEL:          0  ACCURACY: -nan
ITLB TIMELY PREFETCHES:          0 LATE PREFETCHES: 0 DROPPED PREFETCHES: 0
ITLB PREFETCHES SAME FILL-ORIGIN LEVEL: 0 DIFFERENT FILL-ORIGIN LEVEL: 0
ITLB AVERAGE MISS LATENCY: -nan cycles
ITLB RQ	ACCESS:   33184778	FORWARD:          0	MERGED:          0	TO_CACHE:   33184778

DTLB TOTAL     ACCESS:   33842197  HIT:   33831019  MISS:      11178  HIT %:     99.967  MISS %:  0.0330298   MPKI: 0.05589
DTLB LOAD TRANSLATION ACCESS:   33842197  HIT:   33831019  MISS:      11178  HIT %:     99.967  MISS %:  0.0330298   MPKI: 0.05589
DTLB PREFETCH  REQUESTED:          0  ISSUED:          0  USEFUL:          0  USELESS:          0
DTLB USEFUL LOAD PREFETCHES:          0 PREFETCH ISSUED TO LOWER LEVEL:          0  ACCURACY: -nan
DTLB TIMELY PREFETCHES:          0 LATE PREFETCHES: 0 DROPPED PREFETCHES: 0
DTLB PREFETCHES SAME FILL-ORIGIN LEVEL: 0 DIFFERENT FILL-ORIGIN LEVEL: 0
DTLB AVERAGE MISS LATENCY: 136.686 cycles
DTLB RQ	ACCESS:   35389442	FORWARD:          0	MERGED:    1507995	TO_CACHE:   33881447

STLB TOTAL     ACCESS:   10473175  HIT:   10461996  MISS:      11179  HIT %:    99.8933  MISS %:   0.106739   MPKI: 0.055895
STLB LOAD TRANSLATION ACCESS:      11178  HIT:          0  MISS:      11178  HIT %:          0  MISS %:        100   MPKI: 0.05589
STLB TRANSLATION FROM L1D PREFETCHER ACCESS:   10461997  HIT:   10461996  MISS:          1  HIT %:        100  MISS %: 9.5584e-06   MPKI: 5e-06
STLB PREFETCH  REQUESTED:          0  ISSUED:          0  USEFUL:          1  USELESS:          0
STLB USEFUL LOAD PREFETCHES:          1 PREFETCH ISSUED TO LOWER LEVEL:          0  ACCURACY: inf
STLB TIMELY PREFETCHES:          1 LATE PREFETCHES: 1087 DROPPED PREFETCHES: 1394089
STLB PREFETCHES SAME FILL-ORIGIN LEVEL: 0 DIFFERENT FILL-ORIGIN LEVEL: 0
STLB AVERAGE MISS LATENCY: 128.094 cycles
STLB RQ	ACCESS:   58679471	FORWARD:          0	MERGED:   46758658	TO_CACHE:   11920813

STLB Hit, L1D data hit: 0
STLB Hit, L2C data hit: 0
STLB Hit, LLC data hit: 0
STLB Hit, LLC data miss: 0
STLB STLB hints to L2: 0
L1D TOTAL     ACCESS:   76438863  HIT:   75723556  MISS:     715307  HIT %:    99.0642  MISS %:    0.93579   MPKI: 3.57653
L1D LOAD      ACCESS:   12470365  HIT:   12464724  MISS:       5641  HIT %:    99.9548  MISS %:  0.0452352   MPKI: 0.028205
L1D RFO       ACCESS:   12378086  HIT:   12020428  MISS:     357658  HIT %:    97.1106  MISS %:    2.88945   MPKI: 1.78829
L1D PREFETCH  ACCESS:   51590412  HIT:   51238404  MISS:     352008  HIT %:    99.3177  MISS %:   0.682313   MPKI: 1.76004
L1D PREFETCH  REQUESTED:  152231467  ISSUED:  152231467  USEFUL:     352071  USELESS:          0
L1D USEFUL LOAD PREFETCHES:     352071 PREFETCH ISSUED TO LOWER LEVEL:    2097284  ACCURACY: 16.787
L1D TIMELY PREFETCHES:     352071 LATE PREFETCHES: 2832 DROPPED PREFETCHES: 3221598
L1D PREFETCHES SAME FILL-ORIGIN LEVEL: 354908 DIFFERENT FILL-ORIGIN LEVEL: 1742376
L1D AVERAGE MISS LATENCY: 203.201 cycles
L1D RQ	ACCESS:   42781008	FORWARD:          0	MERGED:   30285120	TO_CACHE:   12495888
L1D WQ	ACCESS:   22893554	FORWARD:          0	MERGED:          0	TO_CACHE:   22893554
L1D PQ	ACCESS:   93563177	FORWARD:          0	MERGED:   34894887	TO_CACHE:   58668290

L1D UNIQUE REGIONS ACCESSED: 0
L1D REGIONS CONFLICTS: 0
L1D Cross Page Prefetch Requests: 13242472
L1D Same Page Prefetch Requests: 125802943
L1D ROI Sum of L1D PQ occupancy: 838464237
L1D PREFETCHES PUSHED FROM L2C: 0
L1I TOTAL     ACCESS:   33179836  HIT:   33179836  MISS:          0  HIT %:        100  MISS %:          0   MPKI: 0
L1I LOAD      ACCESS:   33179836  HIT:   33179836  MISS:          0  HIT %:        100  MISS %:          0   MPKI: 0
L1I PREFETCH  REQUESTED:          0  ISSUED:          0  USEFUL:          0  USELESS:          0
L1I USEFUL LOAD PREFETCHES:          0 PREFETCH ISSUED TO LOWER LEVEL:          0  ACCURACY: -nan
L1I TIMELY PREFETCHES:          0 LATE PREFETCHES: 0 DROPPED PREFETCHES: 0
L1I PREFETCHES SAME FILL-ORIGIN LEVEL: 0 DIFFERENT FILL-ORIGIN LEVEL: 0
L1I AVERAGE MISS LATENCY: -nan cycles
L1I RQ	ACCESS:   55499929	FORWARD:          0	MERGED:   22315151	TO_CACHE:   33184778

BTB TOTAL     ACCESS:   45780289  HIT:   45780288  MISS:          1  HIT %:        100  MISS %: 2.18435e-06   MPKI: 5e-06
BTB BRANCH_DIRECT_JUMP	ACCESS:          0  HIT:          0  MISS:          0
BTB BRANCH_INDIRECT	ACCESS:          0  HIT:          0  MISS:          0
BTB BRANCH_CONDITIONAL	ACCESS:   45780289  HIT:   45780288  MISS:          1
BTB BRANCH_DIRECT_CALL	ACCESS:          0  HIT:          0  MISS:          0
BTB BRANCH_INDIRECT_CALL	ACCESS:          0  HIT:          0  MISS:          0
BTB BRANCH_RETURN	ACCESS:          0  HIT:          0  MISS:          0
BTB BRANCH_OTHER ACCESS:          0  HIT:          0  MISS:          0

L2C TOTAL     ACCESS:    3638631  HIT:    2766913  MISS:     871718  HIT %:    76.0427  MISS %:    23.9573   MPKI: 4.35859
L2C LOAD      ACCESS:       2809  HIT:          0  MISS:       2809  HIT %:          0  MISS %:        100   MPKI: 0.014045
L2C DATA LOAD MPKI: 0.014045
L2C INSTRUCTION LOAD MPKI: 0
L2C RFO       ACCESS:     357658  HIT:          0  MISS:     357658  HIT %:          0  MISS %:        100   MPKI: 1.78829
L2C PREFETCH  ACCESS:    1514150  HIT:    1159309  MISS:     354841  HIT %:     76.565  MISS %:     23.435   MPKI: 1.7742
L2C DATA PREFETCH MPKI: 1.7742
L2C INSTRUCTION PREFETCH MPKI: 0
L2C WRITEBACK ACCESS:     357659  HIT:     202779  MISS:     154880  HIT %:    56.6962  MISS %:    43.3038   MPKI: 0.7744
L2C LOAD TRANSLATION ACCESS:      11178  HIT:      10468  MISS:        710  HIT %:    93.6482  MISS %:    6.35176   MPKI: 0.00355
L2C TRANSLATION FROM L1D PREFETCHER ACCESS:    1395177  HIT:    1394357  MISS:        820  HIT %:    99.9412  MISS %:  0.0587739   MPKI: 0.0041
L2C PREFETCH  REQUESTED:          0  ISSUED:          0  USEFUL:        819  USELESS:     355238
L2C USEFUL LOAD PREFETCHES:        819 PREFETCH ISSUED TO LOWER LEVEL:     354910  ACCURACY: 0.230763
L2C TIMELY PREFETCHES:        819 LATE PREFETCHES: 0 DROPPED PREFETCHES: 0
L2C PREFETCHES SAME FILL-ORIGIN LEVEL: 74050 DIFFERENT FILL-ORIGIN LEVEL: 0
L2C AVERAGE MISS LATENCY: 174.853 cycles
L2C RQ	ACCESS:    1766880	FORWARD:          0	MERGED:          0	TO_CACHE:    1766880
L2C WQ	ACCESS:     357716	FORWARD:          0	MERGED:          0	TO_CACHE:     357716
L2C PQ	ACCESS:    2097284	FORWARD:          0	MERGED:        302	TO_CACHE:    2096982

L2C Instructions Evicting Data 0
L2C Translations Evicting Data 1531
L2C Data Evicting Data 714092
L2C Instructions Evicting Instructions 0
L2C Translations Evicting Instructions 0
L2C Data Evicting Instructions 0
L2C Instructions Evicting Translations 0
L2C Translations Evicting Translations 0
L2C Data Evicting Translations 1338
L2C Dense regions hint from L2: 0
PSCL5 TOTAL     ACCESS:    1406355  HIT:    1406355  MISS:          0  HIT %:        100  MISS %:          0   MPKI: 0
PSCL5 LOAD TRANSLATION ACCESS:      11178  HIT:      11178  MISS:          0  HIT %:        100  MISS %:          0   MPKI: 0
PSCL5 TRANSLATION FROM L1D PREFETCHER ACCESS:    1395177  HIT:    1395177  MISS:          0  HIT %:        100  MISS %:          0   MPKI: 0
PSCL5 PREFETCH  REQUESTED:          0  ISSUED:          0  USEFUL:          0  USELESS:          0
PSCL5 USEFUL LOAD PREFETCHES:          0 PREFETCH ISSUED TO LOWER LEVEL:          0  ACCURACY: -nan
PSCL5 TIMELY PREFETCHES:          0 LATE PREFETCHES: 0 DROPPED PREFETCHES: 0
PSCL5 PREFETCHES SAME FILL-ORIGIN LEVEL: 0 DIFFERENT FILL-ORIGIN LEVEL: 0

PSCL4 TOTAL     ACCESS:    1406355  HIT:    1406355  MISS:          0  HIT %:        100  MISS %:          0   MPKI: 0
PSCL4 LOAD TRANSLATION ACCESS:      11178  HIT:      11178  MISS:          0  HIT %:        100  MISS %:          0   MPKI: 0
PSCL4 TRANSLATION FROM L1D PREFETCHER ACCESS:    1395177  HIT:    1395177  MISS:          0  HIT %:        100  MISS %:          0   MPKI: 0
PSCL4 PREFETCH  REQUESTED:          0  ISSUED:          0  USEFUL:          0  USELESS:          0
PSCL4 USEFUL LOAD PREFETCHES:          0 PREFETCH ISSUED TO LOWER LEVEL:          0  ACCURACY: -nan
PSCL4 TIMELY PREFETCHES:          0 LATE PREFETCHES: 0 DROPPED PREFETCHES: 0
PSCL4 PREFETCHES SAME FILL-ORIGIN LEVEL: 0 DIFFERENT FILL-ORIGIN LEVEL: 0

PSCL3 TOTAL     ACCESS:    1406355  HIT:    1406355  MISS:          0  HIT %:        100  MISS %:          0   MPKI: 0
PSCL3 LOAD TRANSLATION ACCESS:      11178  HIT:      11178  MISS:          0  HIT %:        100  MISS %:          0   MPKI: 0
PSCL3 TRANSLATION FROM L1D PREFETCHER ACCESS:    1395177  HIT:    1395177  MISS:          0  HIT %:        100  MISS %:          0   MPKI: 0
PSCL3 PREFETCH  REQUESTED:          0  ISSUED:          0  USEFUL:          0  USELESS:          0
PSCL3 USEFUL LOAD PREFETCHES:          0 PREFETCH ISSUED TO LOWER LEVEL:          0  ACCURACY: -nan
PSCL3 TIMELY PREFETCHES:          0 LATE PREFETCHES: 0 DROPPED PREFETCHES: 0
PSCL3 PREFETCHES SAME FILL-ORIGIN LEVEL: 0 DIFFERENT FILL-ORIGIN LEVEL: 0

PSCL2 TOTAL     ACCESS:    1374554  HIT:    1374532  MISS:         22  HIT %:    99.9984  MISS %: 0.00160052   MPKI: 0.00011
PSCL2 LOAD TRANSLATION ACCESS:      11178  HIT:      11156  MISS:         22  HIT %:    99.8032  MISS %:   0.196815   MPKI: 0.00011
PSCL2 TRANSLATION FROM L1D PREFETCHER ACCESS:    1363376  HIT:    1363376  MISS:          0  HIT %:        100  MISS %:          0   MPKI: 0
PSCL2 PREFETCH  REQUESTED:          0  ISSUED:          0  USEFUL:          0  USELESS:          0
PSCL2 USEFUL LOAD PREFETCHES:          0 PREFETCH ISSUED TO LOWER LEVEL:          0  ACCURACY: -nan
PSCL2 TIMELY PREFETCHES:          0 LATE PREFETCHES: 0 DROPPED PREFETCHES: 0
PSCL2 PREFETCHES SAME FILL-ORIGIN LEVEL: 0 DIFFERENT FILL-ORIGIN LEVEL: 0

LLC TOTAL     ACCESS:    1074177  HIT:     328119  MISS:     746058  HIT %:    30.5461  MISS %:    69.4539   MPKI: 3.73029
LLC LOAD      ACCESS:       2809  HIT:          0  MISS:       2809  HIT %:          0  MISS %:        100   MPKI: 0.014045
LLC RFO       ACCESS:     357658  HIT:          0  MISS:     357658  HIT %:          0  MISS %:        100   MPKI: 1.78829
LLC PREFETCH  ACCESS:     354841  HIT:          0  MISS:     354841  HIT %:          0  MISS %:        100   MPKI: 1.7742
LLC WRITEBACK ACCESS:     357339  HIT:     328013  MISS:      29326  HIT %:    91.7932  MISS %:    8.20677   MPKI: 0.14663
LLC LOAD TRANSLATION ACCESS:        710  HIT:          0  MISS:        710  HIT %:          0  MISS %:        100   MPKI: 0.00355
LLC TRANSLATION FROM L1D PREFETCHER ACCESS:        820  HIT:        106  MISS:        714  HIT %:    12.9268  MISS %:    87.0732   MPKI: 0.00357
LLC PREFETCH  REQUESTED:          0  ISSUED:          0  USEFUL:        107  USELESS:    1420232
LLC USEFUL LOAD PREFETCHES:        107 PREFETCH ISSUED TO LOWER LEVEL:    1419102  ACCURACY: 0.00753998
LLC TIMELY PREFETCHES:        107 LATE PREFETCHES: 0 DROPPED PREFETCHES: 0
LLC PREFETCHES SAME FILL-ORIGIN LEVEL: 0 DIFFERENT FILL-ORIGIN LEVEL: 0
LLC AVERAGE MISS LATENCY: 695.663 cycles
LLC RQ	ACCESS:    1448220	FORWARD:          0	MERGED:          0	TO_CACHE:    1448220
LLC WQ	ACCESS:    1430931	FORWARD:          0	MERGED:          0	TO_CACHE:    1430931
LLC PQ	ACCESS:    1419104	FORWARD:          0	MERGED:          0	TO_CACHE:    1419104

LLC Dense regions hint to LLC: 0

RAW hits: 0
Loads Generated: 42774635
Loads sent to L1D: 42774635
Stores Generated: 22890147
Stores sent to L1D: 22890146
Major fault: 0 Minor fault: 14010
Allocated PAGES: 56040

CPU 1 cumulative IPC: 1.14043 instructions: 200000001 cycles: 175372428
ITLB TOTAL     ACCESS:   33179920  HIT:   33179920  MISS:          0  HIT %:        100  MISS %:          0   MPKI: 0
ITLB LOAD TRANSLATION ACCESS:   33179920  HIT:   33179920  MISS:          0  HIT %:        100  MISS %:          0   MPKI: 0
ITLB PREFETCH  REQUESTED:          0  ISSUED:          0  USEFUL:          0  USELESS:          0
ITLB USEFUL LOAD PREFETCHES:          0 PREFETCH ISSUED TO LOWER LEVEL:          0  ACCURACY: -nan
ITLB TIMELY PREFETCHES:          0 LATE PREFETCHES: 0 DROPPED PREFETCHES: 0
ITLB PREFETCHES SAME FILL-ORIGIN LEVEL: 0 DIFFERENT FILL-ORIGIN LEVEL: 0
ITLB AVERAGE MISS LATENCY: -nan cycles
ITLB RQ	ACCESS:   33183953	FORWARD:          0	MERGED:          0	TO_CACHE:   33183953

DTLB TOTAL     ACCESS:   33843336  HIT:   33832158  MISS:      11178  HIT %:     99.967  MISS %:  0.0330287   MPKI: 0.05589
DTLB LOAD TRANSLATION ACCESS:   33843336  HIT:   33832158  MISS:      11178  HIT %:     99.967  MISS %:  0.0330287   MPKI: 0.05589
DTLB PREFETCH  REQUESTED:          0  ISSUED:          0  USEFUL:          0  USELESS:          0
DTLB USEFUL LOAD PREFETCHES:          0 PREFETCH ISSUED TO LOWER LEVEL:          0  ACCURACY: -nan
DTLB TIMELY PREFETCHES:          0 LATE PREFETCHES: 0 DROPPED PREFETCHES: 0
DTLB PREFETCHES SAME FILL-ORIGIN LEVEL: 0 DIFFERENT FILL-ORIGIN LEVEL: 0
DTLB AVERAGE MISS LATENCY: 136.134 cycles
DTLB RQ	ACCESS:   35389940	FORWARD:          0	MERGED:    1508397	TO_CACHE:   33881543

STLB TOTAL     ACCESS:   10782464  HIT:   10771286  MISS:      11178  HIT %:    99.8963  MISS %:   0.103668   MPKI: 0.05589
STLB LOAD TRANSLATION ACCESS:      11178  HIT:          0  MISS:      11178  HIT %:          0  MISS %:        100   MPKI: 0.05589
STLB TRANSLATION FROM L1D PREFETCHER ACCESS:   10771286  HIT:   10771286  MISS:          0  HIT %:        100  MISS %:          0   MPKI: 0
STLB PREFETCH  REQUESTED:          0  ISSUED:          0  USEFUL:          1  USELESS:          0
STLB USEFUL LOAD PREFETCHES:          1 PREFETCH ISSUED TO LOWER LEVEL:          0  ACCURACY: inf
STLB TIMELY PREFETCHES:          1 LATE PREFETCHES: 1057 DROPPED PREFETCHES: 994859
STLB PREFETCHES SAME FILL-ORIGIN LEVEL: 0 DIFFERENT FILL-ORIGIN LEVEL: 0
STLB AVERAGE MISS LATENCY: 127.601 cycles
STLB RQ	ACCESS:   59733106	FORWARD:          0	MERGED:   47911936	TO_CACHE:   11821170

STLB Hit, L1D data hit: 0
STLB Hit, L2C data hit: 0
STLB Hit, LLC data hit: 0
STLB Hit, LLC data miss: 0
STLB STLB hints to L2: 0
L1D TOTAL     ACCESS:   77902122  HIT:   77186814  MISS:     715308  HIT %:    99.0818  MISS %:   0.918214   MPKI: 3.57654
L1D LOAD      ACCESS:   12471364  HIT:   12465687  MISS:       5677  HIT %:    99.9545  MISS %:  0.0455203   MPKI: 0.028385
L1D RFO       ACCESS:   12451276  HIT:   12093618  MISS:     357658  HIT %:    97.1275  MISS %:    2.87246   MPKI: 1.78829
L1D PREFETCH  ACCESS:   52979482  HIT:   52627509  MISS:     351973  HIT %:    99.3356  MISS %:   0.664357   MPKI: 1.75986
L1D PREFETCH  REQUESTED:  152858412  ISSUED:  152858412  USEFUL:     352025  USELESS:          0
L1D USEFUL LOAD PREFETCHES:     352025 PREFETCH ISSUED TO LOWER LEVEL:    2169748  ACCURACY: 16.2242
L1D TIMELY PREFETCHES:     352025 LATE PREFETCHES: 2800 DROPPED PREFETCHES: 2827012
L1D PREFETCHES SAME FILL-ORIGIN LEVEL: 354832 DIFFERENT FILL-ORIGIN LEVEL: 1814916
L1D AVERAGE MISS LATENCY: 201.238 cycles
L1D RQ	ACCESS:   42779835	FORWARD:          0	MERGED:   30282822	TO_CACHE:   12497013
L1D WQ	ACCESS:   22892927	FORWARD:          0	MERGED:          0	TO_CACHE:   22892927
L1D PQ	ACCESS:   93136487	FORWARD:          0	MERGED:   33414562	TO_CACHE:   59721925

L1D UNIQUE REGIONS ACCESSED: 0
L1D REGIONS CONFLICTS: 0
L1D Cross Page Prefetch Requests: 13313520
L1D Same Page Prefetch Requests: 125549246
L1D ROI Sum of L1D PQ occupancy: 807268132
L1D PREFETCHES PUSHED FROM L2C: 0
L1I TOTAL     ACCESS:   33179919  HIT:   33179919  MISS:          0  HIT %:        100  MISS %:          0   MPKI: 0
L1I LOAD      ACCESS:   33179919  HIT:   33179919  MISS:          0  HIT %:        100  MISS %:          0   MPKI: 0
L1I PREFETCH  REQUESTED:          0  ISSUED:          0  USEFUL:          0  USELESS:          0
L1I USEFUL LOAD PREFETCHES:          0 PREFETCH ISSUED TO LOWER LEVEL:          0  ACCURACY: -nan
L1I TIMELY PREFETCHES:          0 LATE PREFETCHES: 0 DROPPED PREFETCHES: 0
L1I PREFETCHES SAME FILL-ORIGIN LEVEL: 0 DIFFERENT FILL-ORIGIN LEVEL: 0
L1I AVERAGE MISS LATENCY: -nan cycles
L1I RQ	ACCESS:   55498516	FORWARD:          0	MERGED:   22314563	TO_CACHE:   33183953

BTB TOTAL     ACCESS:   45780288  HIT:   45780287  MISS:          1  HIT %:        100  MISS %: 2.18435e-06   MPKI: 5e-06
BTB BRANCH_DIRECT_JUMP	ACCESS:          0  HIT:          0  MISS:          0
BTB BRANCH_INDIRECT	ACCESS:          0  HIT:          0  MISS:          0
BTB BRANCH_CONDITIONAL	ACCESS:   45780288  HIT:   45780287  MISS:          1
BTB BRANCH_DIRECT_CALL	ACCESS:          0  HIT:          0  MISS:          0
BTB BRANCH_INDIRECT_CALL	ACCESS:          0  HIT:          0  MISS:          0
BTB BRANCH_RETURN	ACCESS:          0  HIT:          0  MISS:          0
BTB BRANCH_OTHER ACCESS:          0  HIT:          0  MISS:          0

L2C TOTAL     ACCESS:    3321487  HIT:    2446151  MISS:     875336  HIT %:    73.6463  MISS %:    26.3537   MPKI: 4.37668
L2C LOAD      ACCESS:       2877  HIT:          0  MISS:       2877  HIT %:          0  MISS %:        100   MPKI: 0.014385
L2C DATA LOAD MPKI: 0.014385
L2C INSTRUCTION LOAD MPKI: 0
L2C RFO       ACCESS:     357658  HIT:          0  MISS:     357658  HIT %:          0  MISS %:        100   MPKI: 1.78829
L2C PREFETCH  ACCESS:    1596200  HIT:    1241426  MISS:     354774  HIT %:    77.7738  MISS %:    22.2262   MPKI: 1.77387
L2C DATA PREFETCH MPKI: 1.77387
L2C INSTRUCTION PREFETCH MPKI: 0
L2C WRITEBACK ACCESS:     357658  HIT:     199050  MISS:     158608  HIT %:    55.6537  MISS %:    44.3463   MPKI: 0.79304
L2C LOAD TRANSLATION ACCESS:      11178  HIT:      10467  MISS:        711  HIT %:    93.6393  MISS %:    6.36071   MPKI: 0.003555
L2C TRANSLATION FROM L1D PREFETCHER ACCESS:     995916  HIT:     995208  MISS:        708  HIT %:    99.9289  MISS %:  0.0710903   MPKI: 0.00354
L2C PREFETCH  REQUESTED:          0  ISSUED:          0  USEFUL:        709  USELESS:     355771
L2C USEFUL LOAD PREFETCHES:        709 PREFETCH ISSUED TO LOWER LEVEL:     354833  ACCURACY: 0.199812
L2C TIMELY PREFETCHES:        709 LATE PREFETCHES: 0 DROPPED PREFETCHES: 0
L2C PREFETCHES SAME FILL-ORIGIN LEVEL: 74484 DIFFERENT FILL-ORIGIN LEVEL: 0
L2C AVERAGE MISS LATENCY: 172.123 cycles
L2C RQ	ACCESS:    1367676	FORWARD:          0	MERGED:          0	TO_CACHE:    1367676
L2C WQ	ACCESS:     357698	FORWARD:          0	MERGED:          0	TO_CACHE:     357698
L2C PQ	ACCESS:    2169748	FORWARD:          0	MERGED:        359	TO_CACHE:    2169389

L2C Instructions Evicting Data 0
L2C Translations Evicting Data 1415
L2C Data Evicting Data 714104
L2C Instructions Evicting Instructions 0
L2C Translations Evicting Instructions 0
L2C Data Evicting Instructions 0
L2C Instructions Evicting Translations 0
L2C Translations Evicting Translations 5
L2C Data Evicting Translations 1306
L2C Dense regions hint from L2: 0
PSCL5 TOTAL     ACCESS:    1007094  HIT:    1007094  MISS:          0  HIT %:        100  MISS %:          0   MPKI: 0
PSCL5 LOAD TRANSLATION ACCESS:      11178  HIT:      11178  MISS:          0  HIT %:        100  MISS %:          0   MPKI: 0
PSCL5 TRANSLATION FROM L1D PREFETCHER ACCESS:     995916  HIT:     995916  MISS:          0  HIT %:        100  MISS %:          0   MPKI: 0
PSCL5 PREFETCH  REQUESTED:          0  ISSUED:          0  USEFUL:          0  USELESS:          0
PSCL5 USEFUL LOAD PREFETCHES:          0 PREFETCH ISSUED TO LOWER LEVEL:          0  ACCURACY: -nan
PSCL5 TIMELY PREFETCHES:          0 LATE PREFETCHES: 0 DROPPED PREFETCHES: 0
PSCL5 PREFETCHES SAME FILL-ORIGIN LEVEL: 0 DIFFERENT FILL-ORIGIN LEVEL: 0

PSCL4 TOTAL     ACCESS:    1007094  HIT:    1007094  MISS:          0  HIT %:        100  MISS %:          0   MPKI: 0
PSCL4 LOAD TRANSLATION ACCESS:      11178  HIT:      11178  MISS:          0  HIT %:        100  MISS %:          0   MPKI: 0
PSCL4 TRANSLATION FROM L1D PREFETCHER ACCESS:     995916  HIT:     995916  MISS:          0  HIT %:        100  MISS %:          0   MPKI: 0
PSCL4 PREFETCH  REQUESTED:          0  ISSUED:          0  USEFUL:          0  USELESS:          0
PSCL4 USEFUL LOAD PREFETCHES:          0 PREFETCH ISSUED TO LOWER LEVEL:          0  ACCURACY: -nan
PSCL4 TIMELY PREFETCHES:          0 LATE PREFETCHES: 0 DROPPED PREFETCHES: 0
PSCL4 PREFETCHES SAME FILL-ORIGIN LEVEL: 0 DIFFERENT FILL-ORIGIN LEVEL: 0

PSCL3 TOTAL     ACCESS:    1007094  HIT:    1007094  MISS:          0  HIT %:        100  MISS %:          0   MPKI: 0
PSCL3 LOAD TRANSLATION ACCESS:      11178  HIT:      11178  MISS:          0  HIT %:        100  MISS %:          0   MPKI: 0
PSCL3 TRANSLATION FROM L1D PREFETCHER ACCESS:     995916  HIT:     995916  MISS:          0  HIT %:        100  MISS %:          0   MPKI: 0
PSCL3 PREFETCH  REQUESTED:          0  ISSUED:          0  USEFUL:          0  USELESS:          0
PSCL3 USEFUL LOAD PREFETCHES:          0 PREFETCH ISSUED TO LOWER LEVEL:          0  ACCURACY: -nan
PSCL3 TIMELY PREFETCHES:          0 LATE PREFETCHES: 0 DROPPED PREFETCHES: 0
PSCL3 PREFETCHES SAME FILL-ORIGIN LEVEL: 0 DIFFERENT FILL-ORIGIN LEVEL: 0

PSCL2 TOTAL     ACCESS:    1005115  HIT:    1005093  MISS:         22  HIT %:    99.9978  MISS %:  0.0021888   MPKI: 0.00011
PSCL2 LOAD TRANSLATION ACCESS:      11178  HIT:      11156  MISS:         22  HIT %:    99.8032  MISS %:   0.196815   MPKI: 0.00011
PSCL2 TRANSLATION FROM L1D PREFETCHER ACCESS:     993937  HIT:     993937  MISS:          0  HIT %:        100  MISS %:          0   MPKI: 0
PSCL2 PREFETCH  REQUESTED:          0  ISSUED:          0  USEFUL:          0  USELESS:          0
PSCL2 USEFUL LOAD PREFETCHES:          0 PREFETCH ISSUED TO LOWER LEVEL:          0  ACCURACY: -nan
PSCL2 TIMELY PREFETCHES:          0 LATE PREFETCHES: 0 DROPPED PREFETCHES: 0
PSCL2 PREFETCHES SAME FILL-ORIGIN LEVEL: 0 DIFFERENT FILL-ORIGIN LEVEL: 0

LLC TOTAL     ACCESS:    1073464  HIT:     328082  MISS:     745382  HIT %:    30.5629  MISS %:    69.4371   MPKI: 3.72691
LLC LOAD      ACCESS:       2877  HIT:          0  MISS:       2877  HIT %:          0  MISS %:        100   MPKI: 0.014385
LLC RFO       ACCESS:     357658  HIT:          0  MISS:     357658  HIT %:          0  MISS %:        100   MPKI: 1.78829
LLC PREFETCH  ACCESS:     354774  HIT:          0  MISS:     354774  HIT %:          0  MISS %:        100   MPKI: 1.77387
LLC WRITEBACK ACCESS:     356736  HIT:     328080  MISS:      28656  HIT %:    91.9672  MISS %:    8.03283   MPKI: 0.14328
LLC LOAD TRANSLATION ACCESS:        711  HIT:          2  MISS:        709  HIT %:   0.281294  MISS %:    99.7187   MPKI: 0.003545
LLC TRANSLATION FROM L1D PREFETCHER ACCESS:        708  HIT:          0  MISS:        708  HIT %:          0  MISS %:        100   MPKI: 0.00354
LLC PREFETCH  REQUESTED:          0  ISSUED:          0  USEFUL:        107  USELESS:    1420232
LLC USEFUL LOAD PREFETCHES:        107 PREFETCH ISSUED TO LOWER LEVEL:    1419102  ACCURACY: 0.00753998
LLC TIMELY PREFETCHES:        107 LATE PREFETCHES: 0 DROPPED PREFETCHES: 0
LLC PREFETCHES SAME FILL-ORIGIN LEVEL: 0 DIFFERENT FILL-ORIGIN LEVEL: 0
LLC AVERAGE MISS LATENCY: 696.294 cycles
LLC RQ	ACCESS:    1448220	FORWARD:          0	MERGED:          0	TO_CACHE:    1448220
LLC WQ	ACCESS:    1430931	FORWARD:          0	MERGED:          0	TO_CACHE:    1430931
LLC PQ	ACCESS:    1419104	FORWARD:          0	MERGED:          0	TO_CACHE:    1419104

LLC Dense regions hint to LLC: 0

RAW hits: 0
Loads Generated: 42774636
Loads sent to L1D: 42774636
Stores Generated: 22890147
Stores sent to L1D: 22890147
Major fault: 0 Minor fault: 14010
Allocated PAGES: 56040

CPU 2 cumulative IPC: 1.14036 instructions: 200000002 cycles: 175383480
ITLB TOTAL     ACCESS:   33180006  HIT:   33180006  MISS:          0  HIT %:        100  MISS %:          0   MPKI: 0
ITLB LOAD TRANSLATION ACCESS:   33180006  HIT:   33180006  MISS:          0  HIT %:        100  MISS %:          0   MPKI: 0
ITLB PREFETCH  REQUESTED:          0  ISSUED:          0  USEFUL:          0  USELESS:          0
ITLB USEFUL LOAD PREFETCHES:          0 PREFETCH ISSUED TO LOWER LEVEL:          0  ACCURACY: -nan
ITLB TIMELY PREFETCHES:          0 LATE PREFETCHES: 0 DROPPED PREFETCHES: 0
ITLB PREFETCHES SAME FILL-ORIGIN LEVEL: 0 DIFFERENT FILL-ORIGIN LEVEL: 0
ITLB AVERAGE MISS LATENCY: -nan cycles
ITLB RQ	ACCESS:   33181945	FORWARD:          0	MERGED:          0	TO_CACHE:   33181945

DTLB TOTAL     ACCESS:   33845489  HIT:   33834311  MISS:      11178  HIT %:     99.967  MISS %:  0.0330266   MPKI: 0.05589
DTLB LOAD TRANSLATION ACCESS:   33845489  HIT:   33834311  MISS:      11178  HIT %:     99.967  MISS %:  0.0330266   MPKI: 0.05589
DTLB PREFETCH  REQUESTED:          0  ISSUED:          0  USEFUL:          0  USELESS:          0
DTLB USEFUL LOAD PREFETCHES:          0 PREFETCH ISSUED TO LOWER LEVEL:          0  ACCURACY: -nan
DTLB TIMELY PREFETCHES:          0 LATE PREFETCHES: 0 DROPPED PREFETCHES: 0
DTLB PREFETCHES SAME FILL-ORIGIN LEVEL: 0 DIFFERENT FILL-ORIGIN LEVEL: 0
DTLB AVERAGE MISS LATENCY: 135.066 cycles
DTLB RQ	ACCESS:   35388428	FORWARD:          0	MERGED:    1507916	TO_CACHE:   33880512

STLB TOTAL     ACCESS:   10470485  HIT:   10459306  MISS:      11179  HIT %:    99.8932  MISS %:   0.106767   MPKI: 0.055895
STLB LOAD TRANSLATION ACCESS:      11178  HIT:          0  MISS:      11178  HIT %:          0  MISS %:        100   MPKI: 0.05589
STLB TRANSLATION FROM L1D PREFETCHER ACCESS:   10459307  HIT:   10459306  MISS:          1  HIT %:        100  MISS %: 9.56086e-06   MPKI: 5e-06
STLB PREFETCH  REQUESTED:          0  ISSUED:          0  USEFUL:          2  USELESS:          0
STLB USEFUL LOAD PREFETCHES:          2 PREFETCH ISSUED TO LOWER LEVEL:          0  ACCURACY: inf
STLB TIMELY PREFETCHES:          2 LATE PREFETCHES: 1033 DROPPED PREFETCHES: 1321298
STLB PREFETCHES SAME FILL-ORIGIN LEVEL: 0 DIFFERENT FILL-ORIGIN LEVEL: 0
STLB AVERAGE MISS LATENCY: 126.367 cycles
STLB RQ	ACCESS:   58775316	FORWARD:          0	MERGED:   46929996	TO_CACHE:   11845320

STLB Hit, L1D data hit: 0
STLB Hit, L2C data hit: 0
STLB Hit, LLC data hit: 0
STLB Hit, LLC data miss: 0
STLB STLB hints to L2: 0
L1D TOTAL     ACCESS:   76537378  HIT:   75822065  MISS:     715313  HIT %:    99.0654  MISS %:   0.934593   MPKI: 3.57656
L1D LOAD      ACCESS:   12471887  HIT:   12466185  MISS:       5702  HIT %:    99.9543  MISS %:  0.0457188   MPKI: 0.02851
L1D RFO       ACCESS:   12409616  HIT:   12051958  MISS:     357658  HIT %:    97.1179  MISS %:     2.8821   MPKI: 1.78829
L1D PREFETCH  ACCESS:   51655875  HIT:   51303922  MISS:     351953  HIT %:    99.3187  MISS %:   0.681342   MPKI: 1.75976
L1D PREFETCH  REQUESTED:  152314589  ISSUED:  152314589  USEFUL:     351978  USELESS:          0
L1D USEFUL LOAD PREFETCHES:     351978 PREFETCH ISSUED TO LOWER LEVEL:    2120829  ACCURACY: 16.5962
L1D TIMELY PREFETCHES:     351978 LATE PREFETCHES: 2709 DROPPED PREFETCHES: 3271219
L1D PREFETCHES SAME FILL-ORIGIN LEVEL: 354686 DIFFERENT FILL-ORIGIN LEVEL: 1766143
L1D AVERAGE MISS LATENCY: 201.305 cycles
L1D RQ	ACCESS:   42777133	FORWARD:          0	MERGED:   30280188	TO_CACHE:   12496945
L1D WQ	ACCESS:   22891483	FORWARD:          0	MERGED:          0	TO_CACHE:   22891483
L1D PQ	ACCESS:   93550454	FORWARD:          0	MERGED:   34786319	TO_CACHE:   58764135

L1D UNIQUE REGIONS ACCESSED: 0
L1D REGIONS CONFLICTS: 0
L1D Cross Page Prefetch Requests: 14792140
L1D Same Page Prefetch Requests: 125393061
L1D ROI Sum of L1D PQ occupancy: 836992164
L1D PREFETCHES PUSHED FROM L2C: 0
L1I TOTAL     ACCESS:   33180005  HIT:   33180005  MISS:          0  HIT %:        100  MISS %:          0   MPKI: 0
L1I LOAD      ACCESS:   33180005  HIT:   33180005  MISS:          0  HIT %:        100  MISS %:          0   MPKI: 0
L1I PREFETCH  REQUESTED:          0  ISSUED:          0  USEFUL:          0  USELESS:          0
L1I USEFUL LOAD PREFETCHES:          0 PREFETCH ISSUED TO LOWER LEVEL:          0  ACCURACY: -nan
L1I TIMELY PREFETCHES:          0 LATE PREFETCHES: 0 DROPPED PREFETCHES: 0
L1I PREFETCHES SAME FILL-ORIGIN LEVEL: 0 DIFFERENT FILL-ORIGIN LEVEL: 0
L1I AVERAGE MISS LATENCY: -nan cycles
L1I RQ	ACCESS:   55494385	FORWARD:          0	MERGED:   22312440	TO_CACHE:   33181945

BTB TOTAL     ACCESS:   45780289  HIT:   45780287  MISS:          2  HIT %:        100  MISS %: 4.36869e-06   MPKI: 1e-05
BTB BRANCH_DIRECT_JUMP	ACCESS:          0  HIT:          0  MISS:          0
BTB BRANCH_INDIRECT	ACCESS:          0  HIT:          0  MISS:          0
BTB BRANCH_CONDITIONAL	ACCESS:   45780289  HIT:   45780287  MISS:          2
BTB BRANCH_DIRECT_CALL	ACCESS:          0  HIT:          0  MISS:          0
BTB BRANCH_INDIRECT_CALL	ACCESS:          0  HIT:          0  MISS:          0
BTB BRANCH_RETURN	ACCESS:          0  HIT:          0  MISS:          0
BTB BRANCH_OTHER ACCESS:          0  HIT:          0  MISS:          0

L2C TOTAL     ACCESS:    3614925  HIT:    2737142  MISS:     877783  HIT %:    75.7178  MISS %:    24.2822   MPKI: 4.38891
L2C LOAD      ACCESS:       2993  HIT:          0  MISS:       2993  HIT %:          0  MISS %:        100   MPKI: 0.014965
L2C DATA LOAD MPKI: 0.014965
L2C INSTRUCTION LOAD MPKI: 0
L2C RFO       ACCESS:     357658  HIT:          0  MISS:     357658  HIT %:          0  MISS %:        100   MPKI: 1.78829
L2C PREFETCH  ACCESS:    1563106  HIT:    1208444  MISS:     354662  HIT %:    77.3104  MISS %:    22.6896   MPKI: 1.77331
L2C DATA PREFETCH MPKI: 1.77331
L2C INSTRUCTION PREFETCH MPKI: 0
L2C WRITEBACK ACCESS:     357658  HIT:     196608  MISS:     161050  HIT %:    54.9709  MISS %:    45.0291   MPKI: 0.80525
L2C LOAD TRANSLATION ACCESS:      11178  HIT:      10468  MISS:        710  HIT %:    93.6482  MISS %:    6.35176   MPKI: 0.00355
L2C TRANSLATION FROM L1D PREFETCHER ACCESS:    1322332  HIT:    1321622  MISS:        710  HIT %:    99.9463  MISS %:   0.053693   MPKI: 0.00355
L2C PREFETCH  REQUESTED:          0  ISSUED:          0  USEFUL:        710  USELESS:     353846
L2C USEFUL LOAD PREFETCHES:        710 PREFETCH ISSUED TO LOWER LEVEL:     354704  ACCURACY: 0.200167
L2C TIMELY PREFETCHES:        710 LATE PREFETCHES: 0 DROPPED PREFETCHES: 0
L2C PREFETCHES SAME FILL-ORIGIN LEVEL: 76292 DIFFERENT FILL-ORIGIN LEVEL: 0
L2C AVERAGE MISS LATENCY: 172.133 cycles
L2C RQ	ACCESS:    1694186	FORWARD:          0	MERGED:          0	TO_CACHE:    1694186
L2C WQ	ACCESS:     357680	FORWARD:          0	MERGED:          0	TO_CACHE:     357680
L2C PQ	ACCESS:    2120829	FORWARD:          0	MERGED:        336	TO_CACHE:    2120493

L2C Instructions Evicting Data 0
L2C Translations Evicting Data 1421
L2C Data Evicting Data 714128
L2C Instructions Evicting Instructions 0
L2C Translations Evicting Instructions 0
L2C Data Evicting Instructions 0
L2C Instructions Evicting Translations 0
L2C Translations Evicting Translations 1
L2C Data Evicting Translations 1246
L2C Dense regions hint from L2: 0
PSCL5 TOTAL     ACCESS:    1333510  HIT:    1333510  MISS:          0  HIT %:        100  MISS %:          0   MPKI: 0
PSCL5 LOAD TRANSLATION ACCESS:      11178  HIT:      11178  MISS:          0  HIT %:        100  MISS %:          0   MPKI: 0
PSCL5 TRANSLATION FROM L1D PREFETCHER ACCESS:    1322332  HIT:    1322332  MISS:          0  HIT %:        100  MISS %:          0   MPKI: 0
PSCL5 PREFETCH  REQUESTED:          0  ISSUED:          0  USEFUL:          0  USELESS:          0
PSCL5 USEFUL LOAD PREFETCHES:          0 PREFETCH ISSUED TO LOWER LEVEL:          0  ACCURACY: -nan
PSCL5 TIMELY PREFETCHES:          0 LATE PREFETCHES: 0 DROPPED PREFETCHES: 0
PSCL5 PREFETCHES SAME FILL-ORIGIN LEVEL: 0 DIFFERENT FILL-ORIGIN LEVEL: 0

PSCL4 TOTAL     ACCESS:    1333510  HIT:    1333510  MISS:          0  HIT %:        100  MISS %:          0   MPKI: 0
PSCL4 LOAD TRANSLATION ACCESS:      11178  HIT:      11178  MISS:          0  HIT %:        100  MISS %:          0   MPKI: 0
PSCL4 TRANSLATION FROM L1D PREFETCHER ACCESS:    1322332  HIT:    1322332  MISS:          0  HIT %:        100  MISS %:          0   MPKI: 0
PSCL4 PREFETCH  REQUESTED:          0  ISSUED:          0  USEFUL:          0  USELESS:          0
PSCL4 USEFUL LOAD PREFETCHES:          0 PREFETCH ISSUED TO LOWER LEVEL:          0  ACCURACY: -nan
PSCL4 TIMELY PREFETCHES:          0 LATE PREFETCHES: 0 DROPPED PREFETCHES: 0
PSCL4 PREFETCHES SAME FILL-ORIGIN LEVEL: 0 DIFFERENT FILL-ORIGIN LEVEL: 0

PSCL3 TOTAL     ACCESS:    1333510  HIT:    1333510  MISS:          0  HIT %:        100  MISS %:          0   MPKI: 0
PSCL3 LOAD TRANSLATION ACCESS:      11178  HIT:      11178  MISS:          0  HIT %:        100  MISS %:          0   MPKI: 0
PSCL3 TRANSLATION FROM L1D PREFETCHER ACCESS:    1322332  HIT:    1322332  MISS:          0  HIT %:        100  MISS %:          0   MPKI: 0
PSCL3 PREFETCH  REQUESTED:          0  ISSUED:          0  USEFUL:          0  USELESS:          0
PSCL3 USEFUL LOAD PREFETCHES:          0 PREFETCH ISSUED TO LOWER LEVEL:          0  ACCURACY: -nan
PSCL3 TIMELY PREFETCHES:          0 LATE PREFETCHES: 0 DROPPED PREFETCHES: 0
PSCL3 PREFETCHES SAME FILL-ORIGIN LEVEL: 0 DIFFERENT FILL-ORIGIN LEVEL: 0

PSCL2 TOTAL     ACCESS:    1330834  HIT:    1330812  MISS:         22  HIT %:    99.9983  MISS %:  0.0016531   MPKI: 0.00011
PSCL2 LOAD TRANSLATION ACCESS:      11178  HIT:      11156  MISS:         22  HIT %:    99.8032  MISS %:   0.196815   MPKI: 0.00011
PSCL2 TRANSLATION FROM L1D PREFETCHER ACCESS:    1319656  HIT:    1319656  MISS:          0  HIT %:        100  MISS %:          0   MPKI: 0
PSCL2 PREFETCH  REQUESTED:          0  ISSUED:          0  USEFUL:          0  USELESS:          0
PSCL2 USEFUL LOAD PREFETCHES:          0 PREFETCH ISSUED TO LOWER LEVEL:          0  ACCURACY: -nan
PSCL2 TIMELY PREFETCHES:          0 LATE PREFETCHES: 0 DROPPED PREFETCHES: 0
PSCL2 PREFETCHES SAME FILL-ORIGIN LEVEL: 0 DIFFERENT FILL-ORIGIN LEVEL: 0

LLC TOTAL     ACCESS:    1075251  HIT:     330702  MISS:     744549  HIT %:    30.7558  MISS %:    69.2442   MPKI: 3.72274
LLC LOAD      ACCESS:       2993  HIT:          0  MISS:       2993  HIT %:          0  MISS %:        100   MPKI: 0.014965
LLC RFO       ACCESS:     357658  HIT:          0  MISS:     357658  HIT %:          0  MISS %:        100   MPKI: 1.78829
LLC PREFETCH  ACCESS:     354662  HIT:          0  MISS:     354662  HIT %:          0  MISS %:        100   MPKI: 1.77331
LLC WRITEBACK ACCESS:     358518  HIT:     330702  MISS:      27816  HIT %:    92.2414  MISS %:    7.75861   MPKI: 0.13908
LLC LOAD TRANSLATION ACCESS:        710  HIT:          0  MISS:        710  HIT %:          0  MISS %:        100   MPKI: 0.00355
LLC TRANSLATION FROM L1D PREFETCHER ACCESS:        710  HIT:          0  MISS:        710  HIT %:          0  MISS %:        100   MPKI: 0.00355
LLC PREFETCH  REQUESTED:          0  ISSUED:          0  USEFUL:        107  USELESS:    1420232
LLC USEFUL LOAD PREFETCHES:        107 PREFETCH ISSUED TO LOWER LEVEL:    1419102  ACCURACY: 0.00753998
LLC TIMELY PREFETCHES:        107 LATE PREFETCHES: 0 DROPPED PREFETCHES: 0
LLC PREFETCHES SAME FILL-ORIGIN LEVEL: 0 DIFFERENT FILL-ORIGIN LEVEL: 0
LLC AVERAGE MISS LATENCY: 697.073 cycles
LLC RQ	ACCESS:    1448220	FORWARD:          0	MERGED:          0	TO_CACHE:    1448220
LLC WQ	ACCESS:    1430931	FORWARD:          0	MERGED:          0	TO_CACHE:    1430931
LLC PQ	ACCESS:    1419104	FORWARD:          0	MERGED:          0	TO_CACHE:    1419104

LLC Dense regions hint to LLC: 0

RAW hits: 0
Loads Generated: 42774636
Loads sent to L1D: 42774636
Stores Generated: 22890148
Stores sent to L1D: 22890147
Major fault: 0 Minor fault: 14010
Allocated PAGES: 56040

CPU 3 cumulative IPC: 1.14029 instructions: 200000000 cycles: 175393698
ITLB TOTAL     ACCESS:   33180191  HIT:   33180191  MISS:          0  HIT %:        100  MISS %:          0   MPKI: 0
ITLB LOAD TRANSLATION ACCESS:   33180191  HIT:   33180191  MISS:          0  HIT %:        100  MISS %:          0   MPKI: 0
ITLB PREFETCH  REQUESTED:          0  ISSUED:          0  USEFUL:          0  USELESS:          0
ITLB USEFUL LOAD PREFETCHES:          0 PREFETCH ISSUED TO LOWER LEVEL:          0  ACCURACY: -nan
ITLB TIMELY PREFETCHES:          0 LATE PREFETCHES: 0 DROPPED PREFETCHES: 0
ITLB PREFETCHES SAME FILL-ORIGIN LEVEL: 0 DIFFERENT FILL-ORIGIN LEVEL: 0
ITLB AVERAGE MISS LATENCY: -nan cycles
ITLB RQ	ACCESS:   33180191	FORWARD:          0	MERGED:          0	TO_CACHE:   33180191

DTLB TOTAL     ACCESS:   33844564  HIT:   33833387  MISS:      11177  HIT %:     99.967  MISS %:  0.0330245   MPKI: 0.055885
DTLB LOAD TRANSLATION ACCESS:   33844564  HIT:   33833387  MISS:      11177  HIT %:     99.967  MISS %:  0.0330245   MPKI: 0.055885
DTLB PREFETCH  REQUESTED:          0  ISSUED:          0  USEFUL:          0  USELESS:          0
DTLB USEFUL LOAD PREFETCHES:          0 PREFETCH ISSUED TO LOWER LEVEL:          0  ACCURACY: -nan
DTLB TIMELY PREFETCHES:          0 LATE PREFETCHES: 0 DROPPED PREFETCHES: 0
DTLB PREFETCHES SAME FILL-ORIGIN LEVEL: 0 DIFFERENT FILL-ORIGIN LEVEL: 0
DTLB AVERAGE MISS LATENCY: 136.029 cycles
DTLB RQ	ACCESS:   35385779	FORWARD:          0	MERGED:    1507126	TO_CACHE:   33878653

STLB TOTAL     ACCESS:   10171968  HIT:   10160791  MISS:      11177  HIT %:    99.8901  MISS %:    0.10988   MPKI: 0.055885
STLB LOAD TRANSLATION ACCESS:      11177  HIT:          0  MISS:      11177  HIT %:          0  MISS %:        100   MPKI: 0.055885
STLB TRANSLATION FROM L1D PREFETCHER ACCESS:   10160791  HIT:   10160791  MISS:          0  HIT %:        100  MISS %:          0   MPKI: 0
STLB PREFETCH  REQUESTED:          0  ISSUED:          0  USEFUL:          0  USELESS:          0
STLB USEFUL LOAD PREFETCHES:          0 PREFETCH ISSUED TO LOWER LEVEL:          0  ACCURACY: -nan
STLB TIMELY PREFETCHES:          0 LATE PREFETCHES: 1022 DROPPED PREFETCHES: 1696585
STLB PREFETCHES SAME FILL-ORIGIN LEVEL: 0 DIFFERENT FILL-ORIGIN LEVEL: 0
STLB AVERAGE MISS LATENCY: 127.189 cycles
STLB RQ	ACCESS:   57319987	FORWARD:          0	MERGED:   45394117	TO_CACHE:   11925870

STLB Hit, L1D data hit: 0
STLB Hit, L2C data hit: 0
STLB Hit, LLC data hit: 0
STLB Hit, LLC data miss: 0
STLB STLB hints to L2: 0
L1D TOTAL     ACCESS:   74872999  HIT:   74157686  MISS:     715313  HIT %:    99.0446  MISS %:   0.955368   MPKI: 3.57656
L1D LOAD      ACCESS:   12471396  HIT:   12465679  MISS:       5717  HIT %:    99.9542  MISS %:  0.0458409   MPKI: 0.028585
L1D RFO       ACCESS:   12456945  HIT:   12099288  MISS:     357657  HIT %:    97.1289  MISS %:    2.87115   MPKI: 1.78828
L1D PREFETCH  ACCESS:   49944658  HIT:   49592719  MISS:     351939  HIT %:    99.2953  MISS %:   0.704658   MPKI: 1.7597
L1D PREFETCH  REQUESTED:  151258289  ISSUED:  151258199  USEFUL:     351941  USELESS:          0
L1D USEFUL LOAD PREFETCHES:     351941 PREFETCH ISSUED TO LOWER LEVEL:    2082280  ACCURACY: 16.9017
L1D TIMELY PREFETCHES:     351941 LATE PREFETCHES: 2721 DROPPED PREFETCHES: 3606606
L1D PREFETCHES SAME FILL-ORIGIN LEVEL: 354662 DIFFERENT FILL-ORIGIN LEVEL: 1727618
L1D AVERAGE MISS LATENCY: 201.206 cycles
L1D RQ	ACCESS:   42774636	FORWARD:          0	MERGED:   30279003	TO_CACHE:   12495633
L1D WQ	ACCESS:   22890146	FORWARD:          0	MERGED:          0	TO_CACHE:   22890146
L1D PQ	ACCESS:   93949390	FORWARD:          0	MERGED:   36640581	TO_CACHE:   57308809

L1D UNIQUE REGIONS ACCESSED: 0
L1D REGIONS CONFLICTS: 0
L1D Cross Page Prefetch Requests: 15545031
L1D Same Page Prefetch Requests: 125382268
L1D ROI Sum of L1D PQ occupancy: 864286080
L1D PREFETCHES PUSHED FROM L2C: 0
L1I TOTAL     ACCESS:   33180191  HIT:   33180191  MISS:          0  HIT %:        100  MISS %:          0   MPKI: 0
L1I LOAD      ACCESS:   33180191  HIT:   33180191  MISS:          0  HIT %:        100  MISS %:          0   MPKI: 0
L1I PREFETCH  REQUESTED:          0  ISSUED:          0  USEFUL:          0  USELESS:          0
L1I USEFUL LOAD PREFETCHES:          0 PREFETCH ISSUED TO LOWER LEVEL:          0  ACCURACY: -nan
L1I TIMELY PREFETCHES:          0 LATE PREFETCHES: 0 DROPPED PREFETCHES: 0
L1I PREFETCHES SAME FILL-ORIGIN LEVEL: 0 DIFFERENT FILL-ORIGIN LEVEL: 0
L1I AVERAGE MISS LATENCY: -nan cycles
L1I RQ	ACCESS:   55490851	FORWARD:          0	MERGED:   22310660	TO_CACHE:   33180191

BTB TOTAL     ACCESS:   45780287  HIT:   45780285  MISS:          2  HIT %:        100  MISS %: 4.36869e-06   MPKI: 1e-05
BTB BRANCH_DIRECT_JUMP	ACCESS:          0  HIT:          0  MISS:          0
BTB BRANCH_INDIRECT	ACCESS:          0  HIT:          0  MISS:          0
BTB BRANCH_CONDITIONAL	ACCESS:   45780287  HIT:   45780285  MISS:          2
BTB BRANCH_DIRECT_CALL	ACCESS:          0  HIT:          0  MISS:          0
BTB BRANCH_INDIRECT_CALL	ACCESS:          0  HIT:          0  MISS:          0
BTB BRANCH_RETURN	ACCESS:          0  HIT:          0  MISS:          0
BTB BRANCH_OTHER ACCESS:          0  HIT:          0  MISS:          0

L2C TOTAL     ACCESS:    3956965  HIT:    3074092  MISS:     882873  HIT %:    77.6881  MISS %:    22.3119   MPKI: 4.41437
L2C LOAD      ACCESS:       2996  HIT:          0  MISS:       2996  HIT %:          0  MISS %:        100   MPKI: 0.01498
L2C DATA LOAD MPKI: 0.01498
L2C INSTRUCTION LOAD MPKI: 0
L2C RFO       ACCESS:     357657  HIT:          0  MISS:     357657  HIT %:          0  MISS %:        100   MPKI: 1.78828
L2C PREFETCH  ACCESS:    1529872  HIT:    1175217  MISS:     354655  HIT %:     76.818  MISS %:     23.182   MPKI: 1.77327
L2C DATA PREFETCH MPKI: 1.77327
L2C INSTRUCTION PREFETCH MPKI: 0
L2C WRITEBACK ACCESS:     357657  HIT:     191511  MISS:     166146  HIT %:     53.546  MISS %:     46.454   MPKI: 0.83073
L2C LOAD TRANSLATION ACCESS:      11177  HIT:      10468  MISS:        709  HIT %:    93.6566  MISS %:    6.34338   MPKI: 0.003545
L2C TRANSLATION FROM L1D PREFETCHER ACCESS:    1697606  HIT:    1696896  MISS:        710  HIT %:    99.9582  MISS %:  0.0418236   MPKI: 0.00355
L2C PREFETCH  REQUESTED:          0  ISSUED:          0  USEFUL:        710  USELESS:     354085
L2C USEFUL LOAD PREFETCHES:        710 PREFETCH ISSUED TO LOWER LEVEL:     354657  ACCURACY: 0.200193
L2C TIMELY PREFETCHES:        710 LATE PREFETCHES: 0 DROPPED PREFETCHES: 0
L2C PREFETCHES SAME FILL-ORIGIN LEVEL: 76830 DIFFERENT FILL-ORIGIN LEVEL: 0
L2C AVERAGE MISS LATENCY: 171.275 cycles
L2C RQ	ACCESS:    2069438	FORWARD:          0	MERGED:          0	TO_CACHE:    2069438
L2C WQ	ACCESS:     357657	FORWARD:          0	MERGED:          0	TO_CACHE:     357657
L2C PQ	ACCESS:    2082280	FORWARD:          0	MERGED:        308	TO_CACHE:    2081972

L2C Instructions Evicting Data 0
L2C Translations Evicting Data 1418
L2C Data Evicting Data 714002
L2C Instructions Evicting Instructions 0
L2C Translations Evicting Instructions 0
L2C Data Evicting Instructions 0
L2C Instructions Evicting Translations 0
L2C Translations Evicting Translations 1
L2C Data Evicting Translations 1306
L2C Dense regions hint from L2: 0
PSCL5 TOTAL     ACCESS:    1708784  HIT:    1708784  MISS:          0  HIT %:        100  MISS %:          0   MPKI: 0
PSCL5 LOAD TRANSLATION ACCESS:      11178  HIT:      11178  MISS:          0  HIT %:        100  MISS %:          0   MPKI: 0
PSCL5 TRANSLATION FROM L1D PREFETCHER ACCESS:    1697606  HIT:    1697606  MISS:          0  HIT %:        100  MISS %:          0   MPKI: 0
PSCL5 PREFETCH  REQUESTED:          0  ISSUED:          0  USEFUL:          0  USELESS:          0
PSCL5 USEFUL LOAD PREFETCHES:          0 PREFETCH ISSUED TO LOWER LEVEL:          0  ACCURACY: -nan
PSCL5 TIMELY PREFETCHES:          0 LATE PREFETCHES: 0 DROPPED PREFETCHES: 0
PSCL5 PREFETCHES SAME FILL-ORIGIN LEVEL: 0 DIFFERENT FILL-ORIGIN LEVEL: 0

PSCL4 TOTAL     ACCESS:    1708784  HIT:    1708784  MISS:          0  HIT %:        100  MISS %:          0   MPKI: 0
PSCL4 LOAD TRANSLATION ACCESS:      11178  HIT:      11178  MISS:          0  HIT %:        100  MISS %:          0   MPKI: 0
PSCL4 TRANSLATION FROM L1D PREFETCHER ACCESS:    1697606  HIT:    1697606  MISS:          0  HIT %:        100  MISS %:          0   MPKI: 0
PSCL4 PREFETCH  REQUESTED:          0  ISSUED:          0  USEFUL:          0  USELESS:          0
PSCL4 USEFUL LOAD PREFETCHES:          0 PREFETCH ISSUED TO LOWER LEVEL:          0  ACCURACY: -nan
PSCL4 TIMELY PREFETCHES:          0 LATE PREFETCHES: 0 DROPPED PREFETCHES: 0
PSCL4 PREFETCHES SAME FILL-ORIGIN LEVEL: 0 DIFFERENT FILL-ORIGIN LEVEL: 0

PSCL3 TOTAL     ACCESS:    1708784  HIT:    1708784  MISS:          0  HIT %:        100  MISS %:          0   MPKI: 0
PSCL3 LOAD TRANSLATION ACCESS:      11178  HIT:      11178  MISS:          0  HIT %:        100  MISS %:          0   MPKI: 0
PSCL3 TRANSLATION FROM L1D PREFETCHER ACCESS:    1697606  HIT:    1697606  MISS:          0  HIT %:        100  MISS %:          0   MPKI: 0
PSCL3 PREFETCH  REQUESTED:          0  ISSUED:          0  USEFUL:          0  USELESS:          0
PSCL3 USEFUL LOAD PREFETCHES:          0 PREFETCH ISSUED TO LOWER LEVEL:          0  ACCURACY: -nan
PSCL3 TIMELY PREFETCHES:          0 LATE PREFETCHES: 0 DROPPED PREFETCHES: 0
PSCL3 PREFETCHES SAME FILL-ORIGIN LEVEL: 0 DIFFERENT FILL-ORIGIN LEVEL: 0

PSCL2 TOTAL     ACCESS:    1693379  HIT:    1693357  MISS:         22  HIT %:    99.9987  MISS %: 0.00129918   MPKI: 0.00011
PSCL2 LOAD TRANSLATION ACCESS:      11178  HIT:      11156  MISS:         22  HIT %:    99.8032  MISS %:   0.196815   MPKI: 0.00011
PSCL2 TRANSLATION FROM L1D PREFETCHER ACCESS:    1682201  HIT:    1682201  MISS:          0  HIT %:        100  MISS %:          0   MPKI: 0
PSCL2 PREFETCH  REQUESTED:          0  ISSUED:          0  USEFUL:          0  USELESS:          0
PSCL2 USEFUL LOAD PREFETCHES:          0 PREFETCH ISSUED TO LOWER LEVEL:          0  ACCURACY: -nan
PSCL2 TIMELY PREFETCHES:          0 LATE PREFETCHES: 0 DROPPED PREFETCHES: 0
PSCL2 PREFETCHES SAME FILL-ORIGIN LEVEL: 0 DIFFERENT FILL-ORIGIN LEVEL: 0

LLC TOTAL     ACCESS:    1074951  HIT:     331351  MISS:     743600  HIT %:    30.8248  MISS %:    69.1752   MPKI: 3.718
LLC LOAD      ACCESS:       2996  HIT:          0  MISS:       2996  HIT %:          0  MISS %:        100   MPKI: 0.01498
LLC RFO       ACCESS:     357657  HIT:          0  MISS:     357657  HIT %:          0  MISS %:        100   MPKI: 1.78828
LLC PREFETCH  ACCESS:     354655  HIT:          0  MISS:     354655  HIT %:          0  MISS %:        100   MPKI: 1.77327
LLC WRITEBACK ACCESS:     358224  HIT:     331350  MISS:      26874  HIT %:     92.498  MISS %:    7.50201   MPKI: 0.13437
LLC LOAD TRANSLATION ACCESS:        709  HIT:          0  MISS:        709  HIT %:          0  MISS %:        100   MPKI: 0.003545
LLC TRANSLATION FROM L1D PREFETCHER ACCESS:        710  HIT:          1  MISS:        709  HIT %:   0.140845  MISS %:    99.8592   MPKI: 0.003545
LLC PREFETCH  REQUESTED:          0  ISSUED:          0  USEFUL:        107  USELESS:    1420232
LLC USEFUL LOAD PREFETCHES:        107 PREFETCH ISSUED TO LOWER LEVEL:    1419102  ACCURACY: 0.00753998
LLC TIMELY PREFETCHES:        107 LATE PREFETCHES: 0 DROPPED PREFETCHES: 0
LLC PREFETCHES SAME FILL-ORIGIN LEVEL: 0 DIFFERENT FILL-ORIGIN LEVEL: 0
LLC AVERAGE MISS LATENCY: 697.962 cycles
LLC RQ	ACCESS:    1448220	FORWARD:          0	MERGED:          0	TO_CACHE:    1448220
LLC WQ	ACCESS:    1430931	FORWARD:          0	MERGED:          0	TO_CACHE:    1430931
LLC PQ	ACCESS:    1419104	FORWARD:          0	MERGED:          0	TO_CACHE:    1419104

LLC Dense regions hint to LLC: 0

RAW hits: 0
Loads Generated: 42774636
Loads sent to L1D: 42774636
Stores Generated: 22890146
Stores sent to L1D: 22890146
Major fault: 0 Minor fault: 14010
Allocated PAGES: 56040

DRAM Statistics
 CHANNEL 0
 RQ ROW_BUFFER_HIT:     979375  ROW_BUFFER_MISS:    1887830
 DBUS_CONGESTED:       1667
 WQ ROW_BUFFER_HIT:     664337  ROW_BUFFER_MISS:     767450  FULL:       1129

 AVG_CONGESTED_CYCLE: 5
 All warmup complete: 5
Channel 0 Bank busy for read cycles: 0
Channel 0 Bank busy for write cycles: 0
Channel 0
Rank 0
0banks busy for read cycles: 446875
0banks busy for write cycles: 703
1banks busy for read cycles: 33724281
1banks busy for write cycles: 414396
2banks busy for read cycles: 40607794
2banks busy for write cycles: 417194
3banks busy for read cycles: 30894041
3banks busy for write cycles: 432888
4banks busy for read cycles: 16226350
4banks busy for write cycles: 455002
5banks busy for read cycles: 5888196
5banks busy for write cycles: 495908
6banks busy for read cycles: 1746243
6banks busy for write cycles: 622508
7banks busy for read cycles: 675280
7banks busy for write cycles: 2586356
8banks busy for read cycles: 2182862
8banks busy for write cycles: 37576822

CPU 0 Branch Prediction Accuracy: 99.4144% MPKI: 1.34046 Average ROB Occupancy at Mispredict: 32.9794
Branch types
NOT_BRANCH: 154242699 77.1099%
BRANCH_DIRECT_JUMP: 0 0%
BRANCH_INDIRECT: 0 0%
BRANCH_CONDITIONAL: 45787115 22.8901%
BRANCH_DIRECT_CALL: 0 0%
BRANCH_INDIRECT_CALL: 0 0%
BRANCH_RETURN: 0 0%
BRANCH_OTHER: 0 0%


CPU 1 Branch Prediction Accuracy: 99.4144% MPKI: 1.34046 Average ROB Occupancy at Mispredict: 32.9183
Branch types
NOT_BRANCH: 154238469 77.1099%
BRANCH_DIRECT_JUMP: 0 0%
BRANCH_INDIRECT: 0 0%
BRANCH_CONDITIONAL: 45785860 22.8901%
BRANCH_DIRECT_CALL: 0 0%
BRANCH_INDIRECT_CALL: 0 0%
BRANCH_RETURN: 0 0%
BRANCH_OTHER: 0 0%


CPU 2 Branch Prediction Accuracy: 99.4144% MPKI: 1.34045 Average ROB Occupancy at Mispredict: 32.8999
Branch types
NOT_BRANCH: 154228732 77.1099%
BRANCH_DIRECT_JUMP: 0 0%
BRANCH_INDIRECT: 0 0%
BRANCH_CONDITIONAL: 45782972 22.8901%
BRANCH_DIRECT_CALL: 0 0%
BRANCH_INDIRECT_CALL: 0 0%
BRANCH_RETURN: 0 0%
BRANCH_OTHER: 0 0%


CPU 3 Branch Prediction Accuracy: 99.4144% MPKI: 1.34044 Average ROB Occupancy at Mispredict: 32.9112
Branch types
NOT_BRANCH: 154219701 77.1099%
BRANCH_DIRECT_JUMP: 0 0%
BRANCH_INDIRECT: 0 0%
BRANCH_CONDITIONAL: 45780290 22.8901%
BRANCH_DIRECT_CALL: 0 0%
BRANCH_INDIRECT_CALL: 0 0%
BRANCH_RETURN: 0 0%
BRANCH_OTHER: 0 0%

DRAM PAGES: 1048576
Allocated PAGES: 56040
