
*** ChampSim Multicore Out-of-Order Simulator ***

Warmup Instructions: 50000000
Simulation Instructions: 200000000
Number of CPUs: 4
LLC sets: 8192
LLC ways: 16
Off-chip DRAM Size: 4096 MB Channels: 1 Width: 64-bit Data Rate: 6400 MT/s
CPU 0 runs ./traces/ligra/ligra_BC.com-lj.ungraph.gcc_6.3.0_O3.drop_26750M.length_250M.champsimtrace.xz
.xz
CPU 1 runs ./traces/ligra/ligra_BC.com-lj.ungraph.gcc_6.3.0_O3.drop_26750M.length_250M.champsimtrace.xz
.xz
CPU 2 runs ./traces/ligra/ligra_BC.com-lj.ungraph.gcc_6.3.0_O3.drop_26750M.length_250M.champsimtrace.xz
.xz
CPU 3 runs ./traces/ligra/ligra_BC.com-lj.ungraph.gcc_6.3.0_O3.drop_26750M.length_250M.champsimtrace.xz
.xz
BTB has LRU replacement policy
ITLB has LRU replacement policy
DTLB has LRU replacement policy
STLB has LRU replacement policy
L1I has LRU replacement policy
History Sets: 8
History Ways: 16
BERTI Size: 16
BERTI Stride Size: 8
L1D has LRU replacement policy
Initialize SRRIP state for L2C
Initialize DRRIP state for LLC
BTB has LRU replacement policy
ITLB has LRU replacement policy
DTLB has LRU replacement policy
STLB has LRU replacement policy
L1I has LRU replacement policy
History Sets: 8
History Ways: 16
BERTI Size: 16
BERTI Stride Size: 8
L1D has LRU replacement policy
Initialize SRRIP state for L2C
Initialize DRRIP state for LLC
BTB has LRU replacement policy
ITLB has LRU replacement policy
DTLB has LRU replacement policy
STLB has LRU replacement policy
L1I has LRU replacement policy
History Sets: 8
History Ways: 16
BERTI Size: 16
BERTI Stride Size: 8
L1D has LRU replacement policy
Initialize SRRIP state for L2C
Initialize DRRIP state for LLC
BTB has LRU replacement policy
ITLB has LRU replacement policy
DTLB has LRU replacement policy
STLB has LRU replacement policy
L1I has LRU replacement policy
History Sets: 8
History Ways: 16
BERTI Size: 16
BERTI Stride Size: 8
L1D has LRU replacement policy
Initialize SRRIP state for L2C
Initialize DRRIP state for LLC
Heartbeat CPU 0 instructions: 10000003 cycles: 3333516 heartbeat IPC: 2.99984 cumulative IPC: 2.99984 (Simulation time: 0 hr 2 min 5 sec) 
Heartbeat CPU 1 instructions: 10000003 cycles: 3333525 heartbeat IPC: 2.99983 cumulative IPC: 2.99983 (Simulation time: 0 hr 2 min 5 sec) 
Heartbeat CPU 2 instructions: 10000003 cycles: 3333533 heartbeat IPC: 2.99982 cumulative IPC: 2.99982 (Simulation time: 0 hr 2 min 5 sec) 
Heartbeat CPU 3 instructions: 10000003 cycles: 3333543 heartbeat IPC: 2.99981 cumulative IPC: 2.99981 (Simulation time: 0 hr 2 min 5 sec) 
Heartbeat CPU 0 instructions: 20000000 cycles: 6666848 heartbeat IPC: 3 cumulative IPC: 2.99992 (Simulation time: 0 hr 3 min 54 sec) 
Heartbeat CPU 1 instructions: 20000000 cycles: 6666857 heartbeat IPC: 3 cumulative IPC: 2.99991 (Simulation time: 0 hr 3 min 54 sec) 
Heartbeat CPU 2 instructions: 20000000 cycles: 6666865 heartbeat IPC: 3 cumulative IPC: 2.99991 (Simulation time: 0 hr 3 min 54 sec) 
Heartbeat CPU 3 instructions: 20000000 cycles: 6666875 heartbeat IPC: 3 cumulative IPC: 2.99991 (Simulation time: 0 hr 3 min 54 sec) 
Heartbeat CPU 0 instructions: 30000003 cycles: 9999994 heartbeat IPC: 3.00017 cumulative IPC: 3 (Simulation time: 0 hr 5 min 50 sec) 
Heartbeat CPU 1 instructions: 30000003 cycles: 10000008 heartbeat IPC: 3.00016 cumulative IPC: 3 (Simulation time: 0 hr 5 min 50 sec) 
Heartbeat CPU 2 instructions: 30000003 cycles: 10000021 heartbeat IPC: 3.00016 cumulative IPC: 2.99999 (Simulation time: 0 hr 5 min 50 sec) 
Heartbeat CPU 3 instructions: 30000003 cycles: 10000031 heartbeat IPC: 3.00016 cumulative IPC: 2.99999 (Simulation time: 0 hr 5 min 50 sec) 
Heartbeat CPU 0 instructions: 40000003 cycles: 13332026 heartbeat IPC: 3.00117 cumulative IPC: 3.00029 (Simulation time: 0 hr 7 min 33 sec) 
Heartbeat CPU 1 instructions: 40000003 cycles: 13332040 heartbeat IPC: 3.00117 cumulative IPC: 3.00029 (Simulation time: 0 hr 7 min 33 sec) 
Heartbeat CPU 2 instructions: 40000003 cycles: 13332053 heartbeat IPC: 3.00117 cumulative IPC: 3.00029 (Simulation time: 0 hr 7 min 33 sec) 
Heartbeat CPU 3 instructions: 40000003 cycles: 13332063 heartbeat IPC: 3.00117 cumulative IPC: 3.00029 (Simulation time: 0 hr 7 min 33 sec) 
Heartbeat CPU 0 instructions: 50000000 cycles: 16664264 heartbeat IPC: 3.00099 cumulative IPC: 3.00043 (Simulation time: 0 hr 9 min 21 sec) 
Heartbeat CPU 1 instructions: 50000000 cycles: 16664285 heartbeat IPC: 3.00098 cumulative IPC: 3.00043 (Simulation time: 0 hr 9 min 21 sec) 
Heartbeat CPU 2 instructions: 50000000 cycles: 16664303 heartbeat IPC: 3.00097 cumulative IPC: 3.00043 (Simulation time: 0 hr 9 min 21 sec) 
Heartbeat CPU 3 instructions: 50000000 cycles: 16664307 heartbeat IPC: 3.00098 cumulative IPC: 3.00042 (Simulation time: 0 hr 9 min 21 sec) 

Warmup complete CPU 0 instructions: 50000122 cycles: 16664308 (Simulation time: 0 hr 9 min 21 sec) 
Warmup complete CPU 1 instructions: 50000059 cycles: 16664308 (Simulation time: 0 hr 9 min 21 sec) 
Warmup complete CPU 2 instructions: 50000013 cycles: 16664308 (Simulation time: 0 hr 9 min 21 sec) 
Warmup complete CPU 3 instructions: 50000003 cycles: 16664308 (Simulation time: 0 hr 9 min 21 sec) 

Heartbeat CPU 0 instructions: 60000003 cycles: 35520508 heartbeat IPC: 0.530328 cumulative IPC: 0.530323 (Simulation time: 0 hr 12 min 21 sec) 
Heartbeat CPU 1 instructions: 60000003 cycles: 35520558 heartbeat IPC: 0.530328 cumulative IPC: 0.530325 (Simulation time: 0 hr 12 min 21 sec) 
Heartbeat CPU 2 instructions: 60000003 cycles: 35520618 heartbeat IPC: 0.530326 cumulative IPC: 0.530326 (Simulation time: 0 hr 12 min 21 sec) 
Heartbeat CPU 3 instructions: 60000003 cycles: 35520658 heartbeat IPC: 0.530325 cumulative IPC: 0.530325 (Simulation time: 0 hr 12 min 21 sec) 
Heartbeat CPU 0 instructions: 70000000 cycles: 53636540 heartbeat IPC: 0.551997 cumulative IPC: 0.540943 (Simulation time: 0 hr 15 min 19 sec) 
Heartbeat CPU 1 instructions: 70000000 cycles: 53636581 heartbeat IPC: 0.551997 cumulative IPC: 0.540944 (Simulation time: 0 hr 15 min 19 sec) 
Heartbeat CPU 2 instructions: 70000000 cycles: 53636661 heartbeat IPC: 0.551997 cumulative IPC: 0.540944 (Simulation time: 0 hr 15 min 19 sec) 
Heartbeat CPU 3 instructions: 70000000 cycles: 53636686 heartbeat IPC: 0.551997 cumulative IPC: 0.540944 (Simulation time: 0 hr 15 min 19 sec) 
Heartbeat CPU 0 instructions: 80000001 cycles: 80576955 heartbeat IPC: 0.37119 cumulative IPC: 0.469389 (Simulation time: 0 hr 20 min 6 sec) 
Heartbeat CPU 1 instructions: 80000001 cycles: 80642631 heartbeat IPC: 0.370287 cumulative IPC: 0.468908 (Simulation time: 0 hr 20 min 6 sec) 
Heartbeat CPU 3 instructions: 80000001 cycles: 80660920 heartbeat IPC: 0.370038 cumulative IPC: 0.468775 (Simulation time: 0 hr 20 min 6 sec) 
Heartbeat CPU 2 instructions: 80000000 cycles: 80666585 heartbeat IPC: 0.36996 cumulative IPC: 0.468733 (Simulation time: 0 hr 20 min 6 sec) 
Heartbeat CPU 1 instructions: 90000000 cycles: 139116062 heartbeat IPC: 0.171018 cumulative IPC: 0.326659 (Simulation time: 0 hr 28 min 26 sec) 
Heartbeat CPU 0 instructions: 90000000 cycles: 139337002 heartbeat IPC: 0.170184 cumulative IPC: 0.32607 (Simulation time: 0 hr 28 min 28 sec) 
Heartbeat CPU 2 instructions: 90000002 cycles: 139377753 heartbeat IPC: 0.170325 cumulative IPC: 0.325963 (Simulation time: 0 hr 28 min 28 sec) 
Heartbeat CPU 3 instructions: 90000003 cycles: 139529288 heartbeat IPC: 0.169871 cumulative IPC: 0.325561 (Simulation time: 0 hr 28 min 29 sec) 
Heartbeat CPU 1 instructions: 100000003 cycles: 198300662 heartbeat IPC: 0.168963 cumulative IPC: 0.275275 (Simulation time: 0 hr 36 min 21 sec) 
Heartbeat CPU 3 instructions: 100000000 cycles: 198644872 heartbeat IPC: 0.16916 cumulative IPC: 0.274755 (Simulation time: 0 hr 36 min 24 sec) 
Heartbeat CPU 0 instructions: 100000001 cycles: 198669981 heartbeat IPC: 0.16854 cumulative IPC: 0.274716 (Simulation time: 0 hr 36 min 24 sec) 
Heartbeat CPU 2 instructions: 100000001 cycles: 198688286 heartbeat IPC: 0.168604 cumulative IPC: 0.274689 (Simulation time: 0 hr 36 min 24 sec) 
Heartbeat CPU 3 instructions: 110000000 cycles: 263404880 heartbeat IPC: 0.154416 cumulative IPC: 0.24317 (Simulation time: 0 hr 45 min 33 sec) 
Heartbeat CPU 1 instructions: 110000000 cycles: 263416307 heartbeat IPC: 0.153573 cumulative IPC: 0.243159 (Simulation time: 0 hr 45 min 33 sec) 
Heartbeat CPU 2 instructions: 110000000 cycles: 263432315 heartbeat IPC: 0.154454 cumulative IPC: 0.243143 (Simulation time: 0 hr 45 min 33 sec) 
Heartbeat CPU 0 instructions: 110000000 cycles: 263472257 heartbeat IPC: 0.154316 cumulative IPC: 0.243104 (Simulation time: 0 hr 45 min 34 sec) 
Heartbeat CPU 2 instructions: 120000003 cycles: 290450824 heartbeat IPC: 0.370117 cumulative IPC: 0.255674 (Simulation time: 0 hr 50 min 43 sec) 
Heartbeat CPU 3 instructions: 120000003 cycles: 290460656 heartbeat IPC: 0.369607 cumulative IPC: 0.255664 (Simulation time: 0 hr 50 min 44 sec) 
Heartbeat CPU 0 instructions: 120000003 cycles: 290514112 heartbeat IPC: 0.369797 cumulative IPC: 0.255614 (Simulation time: 0 hr 50 min 44 sec) 
Heartbeat CPU 1 instructions: 120000003 cycles: 290528365 heartbeat IPC: 0.36884 cumulative IPC: 0.255601 (Simulation time: 0 hr 50 min 45 sec) 
Heartbeat CPU 3 instructions: 130000002 cycles: 321395562 heartbeat IPC: 0.323259 cumulative IPC: 0.262526 (Simulation time: 0 hr 55 min 39 sec) 
Heartbeat CPU 2 instructions: 130000002 cycles: 321445202 heartbeat IPC: 0.322639 cumulative IPC: 0.262484 (Simulation time: 0 hr 55 min 39 sec) 
Heartbeat CPU 0 instructions: 130000002 cycles: 321484659 heartbeat IPC: 0.322887 cumulative IPC: 0.262449 (Simulation time: 0 hr 55 min 39 sec) 
Heartbeat CPU 1 instructions: 130000002 cycles: 321578624 heartbeat IPC: 0.322058 cumulative IPC: 0.262369 (Simulation time: 0 hr 55 min 40 sec) 
Heartbeat CPU 0 instructions: 140000001 cycles: 355377260 heartbeat IPC: 0.29505 cumulative IPC: 0.265711 (Simulation time: 1 hr 0 min 22 sec) 
Heartbeat CPU 3 instructions: 140000001 cycles: 355408746 heartbeat IPC: 0.294004 cumulative IPC: 0.265687 (Simulation time: 1 hr 0 min 23 sec) 
Heartbeat CPU 1 instructions: 140000001 cycles: 355421737 heartbeat IPC: 0.295481 cumulative IPC: 0.265677 (Simulation time: 1 hr 0 min 23 sec) 
Heartbeat CPU 2 instructions: 140000001 cycles: 355439673 heartbeat IPC: 0.294165 cumulative IPC: 0.265663 (Simulation time: 1 hr 0 min 23 sec) 
Heartbeat CPU 0 instructions: 150000000 cycles: 395233045 heartbeat IPC: 0.250905 cumulative IPC: 0.264152 (Simulation time: 1 hr 5 min 1 sec) 
Heartbeat CPU 1 instructions: 150000002 cycles: 395307962 heartbeat IPC: 0.250713 cumulative IPC: 0.2641 (Simulation time: 1 hr 5 min 1 sec) 
Heartbeat CPU 2 instructions: 150000002 cycles: 395331979 heartbeat IPC: 0.250675 cumulative IPC: 0.264084 (Simulation time: 1 hr 5 min 1 sec) 
Heartbeat CPU 3 instructions: 150000002 cycles: 395359116 heartbeat IPC: 0.250311 cumulative IPC: 0.264065 (Simulation time: 1 hr 5 min 2 sec) 
Heartbeat CPU 1 instructions: 160000002 cycles: 435805913 heartbeat IPC: 0.246926 cumulative IPC: 0.262441 (Simulation time: 1 hr 9 min 33 sec) 
Heartbeat CPU 2 instructions: 160000002 cycles: 435815242 heartbeat IPC: 0.247016 cumulative IPC: 0.262435 (Simulation time: 1 hr 9 min 33 sec) 
Heartbeat CPU 0 instructions: 160000002 cycles: 435870791 heartbeat IPC: 0.246077 cumulative IPC: 0.2624 (Simulation time: 1 hr 9 min 33 sec) 
Heartbeat CPU 3 instructions: 160000002 cycles: 435897285 heartbeat IPC: 0.246681 cumulative IPC: 0.262384 (Simulation time: 1 hr 9 min 33 sec) 
Heartbeat CPU 2 instructions: 170000001 cycles: 478738024 heartbeat IPC: 0.232976 cumulative IPC: 0.259699 (Simulation time: 1 hr 14 min 12 sec) 
Heartbeat CPU 1 instructions: 170000001 cycles: 478799574 heartbeat IPC: 0.232592 cumulative IPC: 0.259664 (Simulation time: 1 hr 14 min 13 sec) 
Heartbeat CPU 0 instructions: 170000001 cycles: 478861079 heartbeat IPC: 0.232611 cumulative IPC: 0.259629 (Simulation time: 1 hr 14 min 14 sec) 
Heartbeat CPU 3 instructions: 170000001 cycles: 478962650 heartbeat IPC: 0.232205 cumulative IPC: 0.259573 (Simulation time: 1 hr 14 min 15 sec) 
Heartbeat CPU 2 instructions: 180000002 cycles: 523429865 heartbeat IPC: 0.223755 cumulative IPC: 0.256529 (Simulation time: 1 hr 18 min 50 sec) 
Heartbeat CPU 0 instructions: 180000002 cycles: 523607344 heartbeat IPC: 0.223482 cumulative IPC: 0.256439 (Simulation time: 1 hr 18 min 51 sec) 
Heartbeat CPU 1 instructions: 180000002 cycles: 523624161 heartbeat IPC: 0.223092 cumulative IPC: 0.25643 (Simulation time: 1 hr 18 min 52 sec) 
Heartbeat CPU 3 instructions: 180000002 cycles: 523710416 heartbeat IPC: 0.223475 cumulative IPC: 0.256387 (Simulation time: 1 hr 18 min 52 sec) 
Heartbeat CPU 2 instructions: 190000003 cycles: 572517948 heartbeat IPC: 0.203715 cumulative IPC: 0.251865 (Simulation time: 1 hr 24 min 3 sec) 
Heartbeat CPU 0 instructions: 190000001 cycles: 572661903 heartbeat IPC: 0.203855 cumulative IPC: 0.251799 (Simulation time: 1 hr 24 min 4 sec) 
Heartbeat CPU 1 instructions: 190000003 cycles: 572776767 heartbeat IPC: 0.203448 cumulative IPC: 0.251748 (Simulation time: 1 hr 24 min 5 sec) 
Heartbeat CPU 3 instructions: 190000001 cycles: 572884934 heartbeat IPC: 0.203357 cumulative IPC: 0.251699 (Simulation time: 1 hr 24 min 5 sec) 
Heartbeat CPU 2 instructions: 200000001 cycles: 622955746 heartbeat IPC: 0.198264 cumulative IPC: 0.247406 (Simulation time: 1 hr 29 min 6 sec) 
Heartbeat CPU 0 instructions: 200000001 cycles: 623050218 heartbeat IPC: 0.198459 cumulative IPC: 0.247367 (Simulation time: 1 hr 29 min 7 sec) 
Heartbeat CPU 1 instructions: 200000000 cycles: 623192663 heartbeat IPC: 0.19835 cumulative IPC: 0.247309 (Simulation time: 1 hr 29 min 8 sec) 
Heartbeat CPU 3 instructions: 200000001 cycles: 623275390 heartbeat IPC: 0.19845 cumulative IPC: 0.247275 (Simulation time: 1 hr 29 min 9 sec) 
Heartbeat CPU 0 instructions: 210000000 cycles: 676865745 heartbeat IPC: 0.18582 cumulative IPC: 0.24235 (Simulation time: 1 hr 34 min 3 sec) 
Heartbeat CPU 2 instructions: 210000000 cycles: 676896869 heartbeat IPC: 0.185387 cumulative IPC: 0.242339 (Simulation time: 1 hr 34 min 3 sec) 
Heartbeat CPU 1 instructions: 210000000 cycles: 676978680 heartbeat IPC: 0.185922 cumulative IPC: 0.242309 (Simulation time: 1 hr 34 min 3 sec) 
Heartbeat CPU 3 instructions: 210000000 cycles: 677019123 heartbeat IPC: 0.186068 cumulative IPC: 0.242294 (Simulation time: 1 hr 34 min 4 sec) 
Heartbeat CPU 0 instructions: 220000000 cycles: 729943687 heartbeat IPC: 0.188402 cumulative IPC: 0.238336 (Simulation time: 1 hr 38 min 49 sec) 
Heartbeat CPU 2 instructions: 220000000 cycles: 730068975 heartbeat IPC: 0.188069 cumulative IPC: 0.238294 (Simulation time: 1 hr 38 min 49 sec) 
Heartbeat CPU 3 instructions: 220000000 cycles: 730084136 heartbeat IPC: 0.188448 cumulative IPC: 0.238289 (Simulation time: 1 hr 38 min 49 sec) 
Heartbeat CPU 1 instructions: 220000000 cycles: 730111401 heartbeat IPC: 0.188208 cumulative IPC: 0.23828 (Simulation time: 1 hr 38 min 49 sec) 
Heartbeat CPU 0 instructions: 230000000 cycles: 784367484 heartbeat IPC: 0.183743 cumulative IPC: 0.234465 (Simulation time: 1 hr 43 min 44 sec) 
Heartbeat CPU 3 instructions: 230000000 cycles: 784426354 heartbeat IPC: 0.184019 cumulative IPC: 0.234448 (Simulation time: 1 hr 43 min 45 sec) 
Heartbeat CPU 2 instructions: 230000000 cycles: 784509424 heartbeat IPC: 0.183687 cumulative IPC: 0.234422 (Simulation time: 1 hr 43 min 45 sec) 
Heartbeat CPU 1 instructions: 230000000 cycles: 784682222 heartbeat IPC: 0.183248 cumulative IPC: 0.234369 (Simulation time: 1 hr 43 min 46 sec) 
Heartbeat CPU 3 instructions: 240000002 cycles: 840318667 heartbeat IPC: 0.178916 cumulative IPC: 0.230679 (Simulation time: 1 hr 49 min 9 sec) 
Heartbeat CPU 0 instructions: 240000002 cycles: 840401229 heartbeat IPC: 0.178464 cumulative IPC: 0.230656 (Simulation time: 1 hr 49 min 10 sec) 
Heartbeat CPU 2 instructions: 240000002 cycles: 840522698 heartbeat IPC: 0.178529 cumulative IPC: 0.230622 (Simulation time: 1 hr 49 min 10 sec) 
Heartbeat CPU 1 instructions: 240000002 cycles: 840651705 heartbeat IPC: 0.178669 cumulative IPC: 0.230586 (Simulation time: 1 hr 49 min 11 sec) 
*** Reached end of trace for Core: 3 Repeating trace: ./traces/ligra/ligra_BC.com-lj.ungraph.gcc_6.3.0_O3.drop_26750M.length_250M.champsimtrace.xz
Heartbeat CPU 3 instructions: 250000001 cycles: 878546577 heartbeat IPC: 0.261589 cumulative IPC: 0.23205 (Simulation time: 1 hr 52 min 59 sec) 
Finished CPU 3 instructions: 200000003 cycles: 861882278 cumulative IPC: 0.23205 (Simulation time: 1 hr 52 min 59 sec) 
*** Reached end of trace for Core: 0 Repeating trace: ./traces/ligra/ligra_BC.com-lj.ungraph.gcc_6.3.0_O3.drop_26750M.length_250M.champsimtrace.xz
Heartbeat CPU 0 instructions: 250000001 cycles: 878667311 heartbeat IPC: 0.261328 cumulative IPC: 0.232018 (Simulation time: 1 hr 53 min 1 sec) 
Finished CPU 0 instructions: 200000001 cycles: 862003315 cumulative IPC: 0.232018 (Simulation time: 1 hr 53 min 1 sec) 
*** Reached end of trace for Core: 2 Repeating trace: ./traces/ligra/ligra_BC.com-lj.ungraph.gcc_6.3.0_O3.drop_26750M.length_250M.champsimtrace.xz
Heartbeat CPU 2 instructions: 250000001 cycles: 878842323 heartbeat IPC: 0.260963 cumulative IPC: 0.231971 (Simulation time: 1 hr 53 min 3 sec) 
Finished CPU 2 instructions: 200000002 cycles: 862178540 cumulative IPC: 0.231971 (Simulation time: 1 hr 53 min 3 sec) 
*** Reached end of trace for Core: 1 Repeating trace: ./traces/ligra/ligra_BC.com-lj.ungraph.gcc_6.3.0_O3.drop_26750M.length_250M.champsimtrace.xz
Heartbeat CPU 1 instructions: 250000001 cycles: 878963705 heartbeat IPC: 0.261015 cumulative IPC: 0.231938 (Simulation time: 1 hr 53 min 5 sec) 
Finished CPU 1 instructions: 200000000 cycles: 862299663 cumulative IPC: 0.231938 (Simulation time: 1 hr 53 min 5 sec) 

ChampSim completed all CPUs

Total Simulation Statistics (not including warmup)

CPU 0 cumulative IPC: 0.23235 instructions: 200355592 cycles: 862299663
ITLB TOTAL     ACCESS:   33220189  HIT:   33220187  MISS:          2  HIT %:        100  MISS %: 6.02044e-06   MPKI: 9.98225e-06
ITLB LOAD      ACCESS:          0  HIT:          0  MISS:          0  HIT %:       -nan  MISS %:       -nan   MPKI: 0
ITLB RFO       ACCESS:          0  HIT:          0  MISS:          0  HIT %:       -nan  MISS %:       -nan   MPKI: 0
ITLB PREFETCH  ACCESS:          0  HIT:          0  MISS:          0  HIT %:       -nan  MISS %:       -nan   MPKI: 0
ITLB WRITEBACK ACCESS:          0  HIT:          0  MISS:          0  HIT %:       -nan  MISS %:       -nan   MPKI: 0
DTLB TOTAL     ACCESS:   54411764  HIT:   51944374  MISS:    2467390  HIT %:    95.4653  MISS %:    4.53466   MPKI: 12.3151
DTLB LOAD      ACCESS:          0  HIT:          0  MISS:          0  HIT %:       -nan  MISS %:       -nan   MPKI: 0
DTLB RFO       ACCESS:          0  HIT:          0  MISS:          0  HIT %:       -nan  MISS %:       -nan   MPKI: 0
DTLB PREFETCH  ACCESS:          0  HIT:          0  MISS:          0  HIT %:       -nan  MISS %:       -nan   MPKI: 0
DTLB WRITEBACK ACCESS:          0  HIT:          0  MISS:          0  HIT %:       -nan  MISS %:       -nan   MPKI: 0
STLB TOTAL     ACCESS:   16538747  HIT:   15633047  MISS:     905700  HIT %:    94.5238  MISS %:    5.47623   MPKI: 4.52046
STLB LOAD      ACCESS:          0  HIT:          0  MISS:          0  HIT %:       -nan  MISS %:       -nan   MPKI: 0
STLB RFO       ACCESS:          0  HIT:          0  MISS:          0  HIT %:       -nan  MISS %:       -nan   MPKI: 0
STLB PREFETCH  ACCESS:          0  HIT:          0  MISS:          0  HIT %:       -nan  MISS %:       -nan   MPKI: 0
STLB WRITEBACK ACCESS:          0  HIT:          0  MISS:          0  HIT %:       -nan  MISS %:       -nan   MPKI: 0
L1D TOTAL     ACCESS:   94815315  HIT:   87668484  MISS:    7146831  HIT %:    92.4624  MISS %:    7.53763   MPKI: 35.6707
L1D LOAD      ACCESS:   38825356  HIT:   34563893  MISS:    4261463  HIT %:     89.024  MISS %:     10.976   MPKI: 21.2695
L1D RFO       ACCESS:   12791524  HIT:   11812546  MISS:     978978  HIT %:    92.3467  MISS %:    7.65333   MPKI: 4.8862
L1D PREFETCH  ACCESS:   43198435  HIT:   41292045  MISS:    1906390  HIT %:    95.5869  MISS %:     4.4131   MPKI: 9.51503
L1D WRITEBACK ACCESS:          0  HIT:          0  MISS:          0  HIT %:       -nan  MISS %:       -nan   MPKI: 0
L1I TOTAL     ACCESS:   38168610  HIT:   38168569  MISS:         41  HIT %:    99.9999  MISS %: 0.000107418   MPKI: 0.000204636
L1I LOAD      ACCESS:   38168610  HIT:   38168569  MISS:         41  HIT %:    99.9999  MISS %: 0.000107418   MPKI: 0.000204636
L1I RFO       ACCESS:          0  HIT:          0  MISS:          0  HIT %:       -nan  MISS %:       -nan   MPKI: 0
L1I PREFETCH  ACCESS:          0  HIT:          0  MISS:          0  HIT %:       -nan  MISS %:       -nan   MPKI: 0
L1I WRITEBACK ACCESS:          0  HIT:          0  MISS:          0  HIT %:       -nan  MISS %:       -nan   MPKI: 0
L2C TOTAL     ACCESS:   19825303  HIT:   12100403  MISS:    7724900  HIT %:    61.0351  MISS %:    38.9649   MPKI: 38.5559
L2C LOAD      ACCESS:    4166096  HIT:     887395  MISS:    3278701  HIT %:    21.3004  MISS %:    78.6996   MPKI: 16.3644
L2C RFO       ACCESS:     978978  HIT:          0  MISS:     978978  HIT %:          0  MISS %:        100   MPKI: 4.8862
L2C PREFETCH  ACCESS:   12077046  HIT:    8935927  MISS:    3141119  HIT %:     73.991  MISS %:     26.009   MPKI: 15.6777
L2C WRITEBACK ACCESS:    1298744  HIT:    1176818  MISS:     121926  HIT %:     90.612  MISS %:    9.38799   MPKI: 0.608548
PSCL5 TOTAL     ACCESS:    1304232  HIT:    1304232  MISS:          0  HIT %:        100  MISS %:          0   MPKI: 0
PSCL5 LOAD      ACCESS:          0  HIT:          0  MISS:          0  HIT %:       -nan  MISS %:       -nan   MPKI: 0
PSCL5 RFO       ACCESS:          0  HIT:          0  MISS:          0  HIT %:       -nan  MISS %:       -nan   MPKI: 0
PSCL5 PREFETCH  ACCESS:          0  HIT:          0  MISS:          0  HIT %:       -nan  MISS %:       -nan   MPKI: 0
PSCL5 WRITEBACK ACCESS:          0  HIT:          0  MISS:          0  HIT %:       -nan  MISS %:       -nan   MPKI: 0
PSCL4 TOTAL     ACCESS:    1304232  HIT:    1304232  MISS:          0  HIT %:        100  MISS %:          0   MPKI: 0
PSCL4 LOAD      ACCESS:          0  HIT:          0  MISS:          0  HIT %:       -nan  MISS %:       -nan   MPKI: 0
PSCL4 RFO       ACCESS:          0  HIT:          0  MISS:          0  HIT %:       -nan  MISS %:       -nan   MPKI: 0
PSCL4 PREFETCH  ACCESS:          0  HIT:          0  MISS:          0  HIT %:       -nan  MISS %:       -nan   MPKI: 0
PSCL4 WRITEBACK ACCESS:          0  HIT:          0  MISS:          0  HIT %:       -nan  MISS %:       -nan   MPKI: 0
PSCL3 TOTAL     ACCESS:    1304232  HIT:    1304232  MISS:          0  HIT %:        100  MISS %:          0   MPKI: 0
PSCL3 LOAD      ACCESS:          0  HIT:          0  MISS:          0  HIT %:       -nan  MISS %:       -nan   MPKI: 0
PSCL3 RFO       ACCESS:          0  HIT:          0  MISS:          0  HIT %:       -nan  MISS %:       -nan   MPKI: 0
PSCL3 PREFETCH  ACCESS:          0  HIT:          0  MISS:          0  HIT %:       -nan  MISS %:       -nan   MPKI: 0
PSCL3 WRITEBACK ACCESS:          0  HIT:          0  MISS:          0  HIT %:       -nan  MISS %:       -nan   MPKI: 0
PSCL2 TOTAL     ACCESS:    1303542  HIT:    1303240  MISS:        302  HIT %:    99.9768  MISS %:  0.0231676   MPKI: 0.00150732
PSCL2 LOAD      ACCESS:          0  HIT:          0  MISS:          0  HIT %:       -nan  MISS %:       -nan   MPKI: 0
PSCL2 RFO       ACCESS:          0  HIT:          0  MISS:          0  HIT %:       -nan  MISS %:       -nan   MPKI: 0
PSCL2 PREFETCH  ACCESS:          0  HIT:          0  MISS:          0  HIT %:       -nan  MISS %:       -nan   MPKI: 0
PSCL2 WRITEBACK ACCESS:          0  HIT:          0  MISS:          0  HIT %:       -nan  MISS %:       -nan   MPKI: 0
LLC TOTAL     ACCESS:    8904320  HIT:    1998580  MISS:    6905740  HIT %:    22.4451  MISS %:    77.5549   MPKI: 34.4674
LLC LOAD      ACCESS:    2994020  HIT:     560466  MISS:    2433554  HIT %:    18.7195  MISS %:    81.2805   MPKI: 12.1462
LLC RFO       ACCESS:     978978  HIT:          0  MISS:     978978  HIT %:          0  MISS %:        100   MPKI: 4.8862
LLC PREFETCH  ACCESS:    3425800  HIT:        663  MISS:    3425137  HIT %:  0.0193531  MISS %:    99.9806   MPKI: 17.0953
LLC WRITEBACK ACCESS:    1301346  HIT:    1249941  MISS:      51405  HIT %:    96.0499  MISS %:    3.95014   MPKI: 0.256569

RAW hits: 5019192
Loads Generated: 64211623
Loads sent to L1D: 59192430
Stores Generated: 22112144
Stores sent to L1D: 22112145

CPU 1 cumulative IPC: 0.231938 instructions: 200000000 cycles: 862299663
ITLB TOTAL     ACCESS:   33161754  HIT:   33161752  MISS:          2  HIT %:        100  MISS %: 6.03104e-06   MPKI: 1e-05
ITLB LOAD      ACCESS:          0  HIT:          0  MISS:          0  HIT %:       -nan  MISS %:       -nan   MPKI: 0
ITLB RFO       ACCESS:          0  HIT:          0  MISS:          0  HIT %:       -nan  MISS %:       -nan   MPKI: 0
ITLB PREFETCH  ACCESS:          0  HIT:          0  MISS:          0  HIT %:       -nan  MISS %:       -nan   MPKI: 0
ITLB WRITEBACK ACCESS:          0  HIT:          0  MISS:          0  HIT %:       -nan  MISS %:       -nan   MPKI: 0
DTLB TOTAL     ACCESS:   54385812  HIT:   51918337  MISS:    2467475  HIT %:     95.463  MISS %:    4.53698   MPKI: 12.3374
DTLB LOAD      ACCESS:          0  HIT:          0  MISS:          0  HIT %:       -nan  MISS %:       -nan   MPKI: 0
DTLB RFO       ACCESS:          0  HIT:          0  MISS:          0  HIT %:       -nan  MISS %:       -nan   MPKI: 0
DTLB PREFETCH  ACCESS:          0  HIT:          0  MISS:          0  HIT %:       -nan  MISS %:       -nan   MPKI: 0
DTLB WRITEBACK ACCESS:          0  HIT:          0  MISS:          0  HIT %:       -nan  MISS %:       -nan   MPKI: 0
STLB TOTAL     ACCESS:   16531303  HIT:   15625610  MISS:     905693  HIT %:    94.5213  MISS %:    5.47865   MPKI: 4.52846
STLB LOAD      ACCESS:          0  HIT:          0  MISS:          0  HIT %:       -nan  MISS %:       -nan   MPKI: 0
STLB RFO       ACCESS:          0  HIT:          0  MISS:          0  HIT %:       -nan  MISS %:       -nan   MPKI: 0
STLB PREFETCH  ACCESS:          0  HIT:          0  MISS:          0  HIT %:       -nan  MISS %:       -nan   MPKI: 0
STLB WRITEBACK ACCESS:          0  HIT:          0  MISS:          0  HIT %:       -nan  MISS %:       -nan   MPKI: 0
L1D TOTAL     ACCESS:   94565195  HIT:   87418708  MISS:    7146487  HIT %:    92.4428  MISS %:    7.55721   MPKI: 35.7324
L1D LOAD      ACCESS:   38806201  HIT:   34547889  MISS:    4258312  HIT %:    89.0267  MISS %:    10.9733   MPKI: 21.2916
L1D RFO       ACCESS:   12744276  HIT:   11765300  MISS:     978976  HIT %:    92.3183  MISS %:    7.68169   MPKI: 4.89488
L1D PREFETCH  ACCESS:   43014718  HIT:   41105519  MISS:    1909199  HIT %:    95.5615  MISS %:    4.43848   MPKI: 9.54599
L1D WRITEBACK ACCESS:          0  HIT:          0  MISS:          0  HIT %:       -nan  MISS %:       -nan   MPKI: 0
L1I TOTAL     ACCESS:   38110186  HIT:   38110145  MISS:         41  HIT %:    99.9999  MISS %: 0.000107583   MPKI: 0.000205
L1I LOAD      ACCESS:   38110186  HIT:   38110145  MISS:         41  HIT %:    99.9999  MISS %: 0.000107583   MPKI: 0.000205
L1I RFO       ACCESS:          0  HIT:          0  MISS:          0  HIT %:       -nan  MISS %:       -nan   MPKI: 0
L1I PREFETCH  ACCESS:          0  HIT:          0  MISS:          0  HIT %:       -nan  MISS %:       -nan   MPKI: 0
L1I WRITEBACK ACCESS:          0  HIT:          0  MISS:          0  HIT %:       -nan  MISS %:       -nan   MPKI: 0
L2C TOTAL     ACCESS:   19893761  HIT:   12167512  MISS:    7726249  HIT %:    61.1625  MISS %:    38.8375   MPKI: 38.6312
L2C LOAD      ACCESS:    4161599  HIT:     885876  MISS:    3275723  HIT %:    21.2869  MISS %:    78.7131   MPKI: 16.3786
L2C RFO       ACCESS:     978976  HIT:          0  MISS:     978976  HIT %:          0  MISS %:        100   MPKI: 4.89488
L2C PREFETCH  ACCESS:   12148146  HIT:    9005197  MISS:    3142949  HIT %:    74.1282  MISS %:    25.8718   MPKI: 15.7147
L2C WRITEBACK ACCESS:    1298743  HIT:    1178292  MISS:     120451  HIT %:    90.7256  MISS %:    9.27443   MPKI: 0.602255
PSCL5 TOTAL     ACCESS:    1306110  HIT:    1306110  MISS:          0  HIT %:        100  MISS %:          0   MPKI: 0
PSCL5 LOAD      ACCESS:          0  HIT:          0  MISS:          0  HIT %:       -nan  MISS %:       -nan   MPKI: 0
PSCL5 RFO       ACCESS:          0  HIT:          0  MISS:          0  HIT %:       -nan  MISS %:       -nan   MPKI: 0
PSCL5 PREFETCH  ACCESS:          0  HIT:          0  MISS:          0  HIT %:       -nan  MISS %:       -nan   MPKI: 0
PSCL5 WRITEBACK ACCESS:          0  HIT:          0  MISS:          0  HIT %:       -nan  MISS %:       -nan   MPKI: 0
PSCL4 TOTAL     ACCESS:    1306110  HIT:    1306110  MISS:          0  HIT %:        100  MISS %:          0   MPKI: 0
PSCL4 LOAD      ACCESS:          0  HIT:          0  MISS:          0  HIT %:       -nan  MISS %:       -nan   MPKI: 0
PSCL4 RFO       ACCESS:          0  HIT:          0  MISS:          0  HIT %:       -nan  MISS %:       -nan   MPKI: 0
PSCL4 PREFETCH  ACCESS:          0  HIT:          0  MISS:          0  HIT %:       -nan  MISS %:       -nan   MPKI: 0
PSCL4 WRITEBACK ACCESS:          0  HIT:          0  MISS:          0  HIT %:       -nan  MISS %:       -nan   MPKI: 0
PSCL3 TOTAL     ACCESS:    1306110  HIT:    1306110  MISS:          0  HIT %:        100  MISS %:          0   MPKI: 0
PSCL3 LOAD      ACCESS:          0  HIT:          0  MISS:          0  HIT %:       -nan  MISS %:       -nan   MPKI: 0
PSCL3 RFO       ACCESS:          0  HIT:          0  MISS:          0  HIT %:       -nan  MISS %:       -nan   MPKI: 0
PSCL3 PREFETCH  ACCESS:          0  HIT:          0  MISS:          0  HIT %:       -nan  MISS %:       -nan   MPKI: 0
PSCL3 WRITEBACK ACCESS:          0  HIT:          0  MISS:          0  HIT %:       -nan  MISS %:       -nan   MPKI: 0
PSCL2 TOTAL     ACCESS:    1305312  HIT:    1305010  MISS:        302  HIT %:    99.9769  MISS %:  0.0231362   MPKI: 0.00151
PSCL2 LOAD      ACCESS:          0  HIT:          0  MISS:          0  HIT %:       -nan  MISS %:       -nan   MPKI: 0
PSCL2 RFO       ACCESS:          0  HIT:          0  MISS:          0  HIT %:       -nan  MISS %:       -nan   MPKI: 0
PSCL2 PREFETCH  ACCESS:          0  HIT:          0  MISS:          0  HIT %:       -nan  MISS %:       -nan   MPKI: 0
PSCL2 WRITEBACK ACCESS:          0  HIT:          0  MISS:          0  HIT %:       -nan  MISS %:       -nan   MPKI: 0
LLC TOTAL     ACCESS:    8907223  HIT:    2001431  MISS:    6905792  HIT %:    22.4698  MISS %:    77.5302   MPKI: 34.529
LLC LOAD      ACCESS:    2991080  HIT:     558400  MISS:    2432680  HIT %:    18.6688  MISS %:    81.3312   MPKI: 12.1634
LLC RFO       ACCESS:     978976  HIT:          0  MISS:     978976  HIT %:          0  MISS %:        100   MPKI: 4.89488
LLC PREFETCH  ACCESS:    3427593  HIT:        737  MISS:    3426856  HIT %:   0.021502  MISS %:    99.9785   MPKI: 17.1343
LLC WRITEBACK ACCESS:    1301424  HIT:    1250781  MISS:      50643  HIT %:    96.1086  MISS %:    3.89135   MPKI: 0.253215

RAW hits: 5017591
Loads Generated: 64140554
Loads sent to L1D: 59122962
Stores Generated: 22112133
Stores sent to L1D: 22112134

CPU 2 cumulative IPC: 0.232107 instructions: 200145590 cycles: 862299663
ITLB TOTAL     ACCESS:   33185286  HIT:   33185284  MISS:          2  HIT %:        100  MISS %: 6.02677e-06   MPKI: 9.99273e-06
ITLB LOAD      ACCESS:          0  HIT:          0  MISS:          0  HIT %:       -nan  MISS %:       -nan   MPKI: 0
ITLB RFO       ACCESS:          0  HIT:          0  MISS:          0  HIT %:       -nan  MISS %:       -nan   MPKI: 0
ITLB PREFETCH  ACCESS:          0  HIT:          0  MISS:          0  HIT %:       -nan  MISS %:       -nan   MPKI: 0
ITLB WRITEBACK ACCESS:          0  HIT:          0  MISS:          0  HIT %:       -nan  MISS %:       -nan   MPKI: 0
DTLB TOTAL     ACCESS:   54390417  HIT:   51923054  MISS:    2467363  HIT %:    95.4636  MISS %:    4.53639   MPKI: 12.3278
DTLB LOAD      ACCESS:          0  HIT:          0  MISS:          0  HIT %:       -nan  MISS %:       -nan   MPKI: 0
DTLB RFO       ACCESS:          0  HIT:          0  MISS:          0  HIT %:       -nan  MISS %:       -nan   MPKI: 0
DTLB PREFETCH  ACCESS:          0  HIT:          0  MISS:          0  HIT %:       -nan  MISS %:       -nan   MPKI: 0
DTLB WRITEBACK ACCESS:          0  HIT:          0  MISS:          0  HIT %:       -nan  MISS %:       -nan   MPKI: 0
STLB TOTAL     ACCESS:   16529179  HIT:   15623505  MISS:     905674  HIT %:    94.5208  MISS %:    5.47924   MPKI: 4.52508
STLB LOAD      ACCESS:          0  HIT:          0  MISS:          0  HIT %:       -nan  MISS %:       -nan   MPKI: 0
STLB RFO       ACCESS:          0  HIT:          0  MISS:          0  HIT %:       -nan  MISS %:       -nan   MPKI: 0
STLB PREFETCH  ACCESS:          0  HIT:          0  MISS:          0  HIT %:       -nan  MISS %:       -nan   MPKI: 0
STLB WRITEBACK ACCESS:          0  HIT:          0  MISS:          0  HIT %:       -nan  MISS %:       -nan   MPKI: 0
L1D TOTAL     ACCESS:   94484438  HIT:   87337303  MISS:    7147135  HIT %:    92.4356  MISS %:    7.56435   MPKI: 35.7097
L1D LOAD      ACCESS:   38801454  HIT:   34537595  MISS:    4263859  HIT %:    89.0111  MISS %:    10.9889   MPKI: 21.3038
L1D RFO       ACCESS:   12753717  HIT:   11774739  MISS:     978978  HIT %:     92.324  MISS %:    7.67602   MPKI: 4.89133
L1D PREFETCH  ACCESS:   42929267  HIT:   41024969  MISS:    1904298  HIT %:    95.5641  MISS %:     4.4359   MPKI: 9.51456
L1D WRITEBACK ACCESS:          0  HIT:          0  MISS:          0  HIT %:       -nan  MISS %:       -nan   MPKI: 0
L1I TOTAL     ACCESS:   38133812  HIT:   38133771  MISS:         41  HIT %:    99.9999  MISS %: 0.000107516   MPKI: 0.000204851
L1I LOAD      ACCESS:   38133812  HIT:   38133771  MISS:         41  HIT %:    99.9999  MISS %: 0.000107516   MPKI: 0.000204851
L1I RFO       ACCESS:          0  HIT:          0  MISS:          0  HIT %:       -nan  MISS %:       -nan   MPKI: 0
L1I PREFETCH  ACCESS:          0  HIT:          0  MISS:          0  HIT %:       -nan  MISS %:       -nan   MPKI: 0
L1I WRITEBACK ACCESS:          0  HIT:          0  MISS:          0  HIT %:       -nan  MISS %:       -nan   MPKI: 0
L2C TOTAL     ACCESS:   19823052  HIT:   12114563  MISS:    7708489  HIT %:    61.1135  MISS %:    38.8865   MPKI: 38.5144
L2C LOAD      ACCESS:    4168134  HIT:     888750  MISS:    3279384  HIT %:    21.3225  MISS %:    78.6775   MPKI: 16.385
L2C RFO       ACCESS:     978978  HIT:          0  MISS:     978978  HIT %:          0  MISS %:        100   MPKI: 4.89133
L2C PREFETCH  ACCESS:   12073788  HIT:    8932029  MISS:    3141759  HIT %:    73.9787  MISS %:    26.0213   MPKI: 15.6974
L2C WRITEBACK ACCESS:    1298744  HIT:    1179597  MISS:     119147  HIT %:     90.826  MISS %:    9.17402   MPKI: 0.595302
PSCL5 TOTAL     ACCESS:    1303221  HIT:    1303221  MISS:          0  HIT %:        100  MISS %:          0   MPKI: 0
PSCL5 LOAD      ACCESS:          0  HIT:          0  MISS:          0  HIT %:       -nan  MISS %:       -nan   MPKI: 0
PSCL5 RFO       ACCESS:          0  HIT:          0  MISS:          0  HIT %:       -nan  MISS %:       -nan   MPKI: 0
PSCL5 PREFETCH  ACCESS:          0  HIT:          0  MISS:          0  HIT %:       -nan  MISS %:       -nan   MPKI: 0
PSCL5 WRITEBACK ACCESS:          0  HIT:          0  MISS:          0  HIT %:       -nan  MISS %:       -nan   MPKI: 0
PSCL4 TOTAL     ACCESS:    1303221  HIT:    1303221  MISS:          0  HIT %:        100  MISS %:          0   MPKI: 0
PSCL4 LOAD      ACCESS:          0  HIT:          0  MISS:          0  HIT %:       -nan  MISS %:       -nan   MPKI: 0
PSCL4 RFO       ACCESS:          0  HIT:          0  MISS:          0  HIT %:       -nan  MISS %:       -nan   MPKI: 0
PSCL4 PREFETCH  ACCESS:          0  HIT:          0  MISS:          0  HIT %:       -nan  MISS %:       -nan   MPKI: 0
PSCL4 WRITEBACK ACCESS:          0  HIT:          0  MISS:          0  HIT %:       -nan  MISS %:       -nan   MPKI: 0
PSCL3 TOTAL     ACCESS:    1303221  HIT:    1303221  MISS:          0  HIT %:        100  MISS %:          0   MPKI: 0
PSCL3 LOAD      ACCESS:          0  HIT:          0  MISS:          0  HIT %:       -nan  MISS %:       -nan   MPKI: 0
PSCL3 RFO       ACCESS:          0  HIT:          0  MISS:          0  HIT %:       -nan  MISS %:       -nan   MPKI: 0
PSCL3 PREFETCH  ACCESS:          0  HIT:          0  MISS:          0  HIT %:       -nan  MISS %:       -nan   MPKI: 0
PSCL3 WRITEBACK ACCESS:          0  HIT:          0  MISS:          0  HIT %:       -nan  MISS %:       -nan   MPKI: 0
PSCL2 TOTAL     ACCESS:    1302494  HIT:    1302192  MISS:        302  HIT %:    99.9768  MISS %:  0.0231863   MPKI: 0.0015089
PSCL2 LOAD      ACCESS:          0  HIT:          0  MISS:          0  HIT %:       -nan  MISS %:       -nan   MPKI: 0
PSCL2 RFO       ACCESS:          0  HIT:          0  MISS:          0  HIT %:       -nan  MISS %:       -nan   MPKI: 0
PSCL2 PREFETCH  ACCESS:          0  HIT:          0  MISS:          0  HIT %:       -nan  MISS %:       -nan   MPKI: 0
PSCL2 WRITEBACK ACCESS:          0  HIT:          0  MISS:          0  HIT %:       -nan  MISS %:       -nan   MPKI: 0
LLC TOTAL     ACCESS:    8890819  HIT:    1984543  MISS:    6906276  HIT %:    22.3213  MISS %:    77.6787   MPKI: 34.5063
LLC LOAD      ACCESS:    2994176  HIT:     560171  MISS:    2434005  HIT %:    18.7087  MISS %:    81.2913   MPKI: 12.1612
LLC RFO       ACCESS:     978978  HIT:          0  MISS:     978978  HIT %:          0  MISS %:        100   MPKI: 4.89133
LLC PREFETCH  ACCESS:    3426967  HIT:        681  MISS:    3426286  HIT %:  0.0198718  MISS %:    99.9801   MPKI: 17.119
LLC WRITEBACK ACCESS:    1301477  HIT:    1251260  MISS:      50217  HIT %:    96.1415  MISS %:    3.85846   MPKI: 0.250902

RAW hits: 5016884
Loads Generated: 64169637
Loads sent to L1D: 59152752
Stores Generated: 22112145
Stores sent to L1D: 22112146

CPU 3 cumulative IPC: 0.232518 instructions: 200500449 cycles: 862299663
ITLB TOTAL     ACCESS:   33245317  HIT:   33245315  MISS:          2  HIT %:        100  MISS %: 6.01588e-06   MPKI: 9.97504e-06
ITLB LOAD      ACCESS:          0  HIT:          0  MISS:          0  HIT %:       -nan  MISS %:       -nan   MPKI: 0
ITLB RFO       ACCESS:          0  HIT:          0  MISS:          0  HIT %:       -nan  MISS %:       -nan   MPKI: 0
ITLB PREFETCH  ACCESS:          0  HIT:          0  MISS:          0  HIT %:       -nan  MISS %:       -nan   MPKI: 0
ITLB WRITEBACK ACCESS:          0  HIT:          0  MISS:          0  HIT %:       -nan  MISS %:       -nan   MPKI: 0
DTLB TOTAL     ACCESS:   54420706  HIT:   51953239  MISS:    2467467  HIT %:    95.4659  MISS %:    4.53406   MPKI: 12.3065
DTLB LOAD      ACCESS:          0  HIT:          0  MISS:          0  HIT %:       -nan  MISS %:       -nan   MPKI: 0
DTLB RFO       ACCESS:          0  HIT:          0  MISS:          0  HIT %:       -nan  MISS %:       -nan   MPKI: 0
DTLB PREFETCH  ACCESS:          0  HIT:          0  MISS:          0  HIT %:       -nan  MISS %:       -nan   MPKI: 0
DTLB WRITEBACK ACCESS:          0  HIT:          0  MISS:          0  HIT %:       -nan  MISS %:       -nan   MPKI: 0
STLB TOTAL     ACCESS:   16549989  HIT:   15644270  MISS:     905719  HIT %:    94.5274  MISS %:    5.47263   MPKI: 4.51729
STLB LOAD      ACCESS:          0  HIT:          0  MISS:          0  HIT %:       -nan  MISS %:       -nan   MPKI: 0
STLB RFO       ACCESS:          0  HIT:          0  MISS:          0  HIT %:       -nan  MISS %:       -nan   MPKI: 0
STLB PREFETCH  ACCESS:          0  HIT:          0  MISS:          0  HIT %:       -nan  MISS %:       -nan   MPKI: 0
STLB WRITEBACK ACCESS:          0  HIT:          0  MISS:          0  HIT %:       -nan  MISS %:       -nan   MPKI: 0
L1D TOTAL     ACCESS:   94608952  HIT:   87462125  MISS:    7146827  HIT %:    92.4459  MISS %:    7.55407   MPKI: 35.6449
L1D LOAD      ACCESS:   38832828  HIT:   34570232  MISS:    4262596  HIT %:    89.0232  MISS %:    10.9768   MPKI: 21.2598
L1D RFO       ACCESS:   12675560  HIT:   11696580  MISS:     978980  HIT %:    92.2766  MISS %:    7.72337   MPKI: 4.88268
L1D PREFETCH  ACCESS:   43100564  HIT:   41195313  MISS:    1905251  HIT %:    95.5795  MISS %:    4.42048   MPKI: 9.50248
L1D WRITEBACK ACCESS:          0  HIT:          0  MISS:          0  HIT %:       -nan  MISS %:       -nan   MPKI: 0
L1I TOTAL     ACCESS:   38193797  HIT:   38193756  MISS:         41  HIT %:    99.9999  MISS %: 0.000107347   MPKI: 0.000204488
L1I LOAD      ACCESS:   38193797  HIT:   38193756  MISS:         41  HIT %:    99.9999  MISS %: 0.000107347   MPKI: 0.000204488
L1I RFO       ACCESS:          0  HIT:          0  MISS:          0  HIT %:       -nan  MISS %:       -nan   MPKI: 0
L1I PREFETCH  ACCESS:          0  HIT:          0  MISS:          0  HIT %:       -nan  MISS %:       -nan   MPKI: 0
L1I WRITEBACK ACCESS:          0  HIT:          0  MISS:          0  HIT %:       -nan  MISS %:       -nan   MPKI: 0
L2C TOTAL     ACCESS:   19807087  HIT:   12095932  MISS:    7711155  HIT %:    61.0687  MISS %:    38.9313   MPKI: 38.4595
L2C LOAD      ACCESS:    4165709  HIT:     887214  MISS:    3278495  HIT %:     21.298  MISS %:     78.702   MPKI: 16.3516
L2C RFO       ACCESS:     978980  HIT:          0  MISS:     978980  HIT %:          0  MISS %:        100   MPKI: 4.88268
L2C PREFETCH  ACCESS:   12060790  HIT:    8917416  MISS:    3143374  HIT %:    73.9372  MISS %:    26.0628   MPKI: 15.6776
L2C WRITEBACK ACCESS:    1298747  HIT:    1179161  MISS:     119586  HIT %:    90.7922  MISS %:     9.2078   MPKI: 0.596438
PSCL5 TOTAL     ACCESS:    1302674  HIT:    1302674  MISS:          0  HIT %:        100  MISS %:          0   MPKI: 0
PSCL5 LOAD      ACCESS:          0  HIT:          0  MISS:          0  HIT %:       -nan  MISS %:       -nan   MPKI: 0
PSCL5 RFO       ACCESS:          0  HIT:          0  MISS:          0  HIT %:       -nan  MISS %:       -nan   MPKI: 0
PSCL5 PREFETCH  ACCESS:          0  HIT:          0  MISS:          0  HIT %:       -nan  MISS %:       -nan   MPKI: 0
PSCL5 WRITEBACK ACCESS:          0  HIT:          0  MISS:          0  HIT %:       -nan  MISS %:       -nan   MPKI: 0
PSCL4 TOTAL     ACCESS:    1302674  HIT:    1302674  MISS:          0  HIT %:        100  MISS %:          0   MPKI: 0
PSCL4 LOAD      ACCESS:          0  HIT:          0  MISS:          0  HIT %:       -nan  MISS %:       -nan   MPKI: 0
PSCL4 RFO       ACCESS:          0  HIT:          0  MISS:          0  HIT %:       -nan  MISS %:       -nan   MPKI: 0
PSCL4 PREFETCH  ACCESS:          0  HIT:          0  MISS:          0  HIT %:       -nan  MISS %:       -nan   MPKI: 0
PSCL4 WRITEBACK ACCESS:          0  HIT:          0  MISS:          0  HIT %:       -nan  MISS %:       -nan   MPKI: 0
PSCL3 TOTAL     ACCESS:    1302674  HIT:    1302674  MISS:          0  HIT %:        100  MISS %:          0   MPKI: 0
PSCL3 LOAD      ACCESS:          0  HIT:          0  MISS:          0  HIT %:       -nan  MISS %:       -nan   MPKI: 0
PSCL3 RFO       ACCESS:          0  HIT:          0  MISS:          0  HIT %:       -nan  MISS %:       -nan   MPKI: 0
PSCL3 PREFETCH  ACCESS:          0  HIT:          0  MISS:          0  HIT %:       -nan  MISS %:       -nan   MPKI: 0
PSCL3 WRITEBACK ACCESS:          0  HIT:          0  MISS:          0  HIT %:       -nan  MISS %:       -nan   MPKI: 0
PSCL2 TOTAL     ACCESS:    1301967  HIT:    1301665  MISS:        302  HIT %:    99.9768  MISS %:  0.0231957   MPKI: 0.00150623
PSCL2 LOAD      ACCESS:          0  HIT:          0  MISS:          0  HIT %:       -nan  MISS %:       -nan   MPKI: 0
PSCL2 RFO       ACCESS:          0  HIT:          0  MISS:          0  HIT %:       -nan  MISS %:       -nan   MPKI: 0
PSCL2 PREFETCH  ACCESS:          0  HIT:          0  MISS:          0  HIT %:       -nan  MISS %:       -nan   MPKI: 0
PSCL2 WRITEBACK ACCESS:          0  HIT:          0  MISS:          0  HIT %:       -nan  MISS %:       -nan   MPKI: 0
LLC TOTAL     ACCESS:    8892959  HIT:    1986466  MISS:    6906493  HIT %:    22.3375  MISS %:    77.6625   MPKI: 34.4463
LLC LOAD      ACCESS:    2993770  HIT:     561710  MISS:    2432060  HIT %:    18.7626  MISS %:    81.2374   MPKI: 12.1299
LLC RFO       ACCESS:     978980  HIT:          0  MISS:     978980  HIT %:          0  MISS %:        100   MPKI: 4.88268
LLC PREFETCH  ACCESS:    3428099  HIT:        717  MISS:    3427382  HIT %:  0.0209154  MISS %:    99.9791   MPKI: 17.0941
LLC WRITEBACK ACCESS:    1301390  HIT:    1250087  MISS:      51303  HIT %:    96.0578  MISS %:    3.94217   MPKI: 0.255875

RAW hits: 5019526
Loads Generated: 64240571
Loads sent to L1D: 59221044
Stores Generated: 22112165
Stores sent to L1D: 22112165

Region of Interest Statistics

CPU 0 cumulative IPC: 0.232018 instructions: 200000001 cycles: 862003315
ITLB TOTAL     ACCESS:   33160970  HIT:   33160968  MISS:          2  HIT %:        100  MISS %: 6.03119e-06   MPKI: 1e-05
ITLB LOAD TRANSLATION ACCESS:   33160970  HIT:   33160968  MISS:          2  HIT %:        100  MISS %: 6.03119e-06   MPKI: 1e-05
ITLB PREFETCH  REQUESTED:          0  ISSUED:          0  USEFUL:          0  USELESS:          0
ITLB USEFUL LOAD PREFETCHES:          0 PREFETCH ISSUED TO LOWER LEVEL:          0  ACCURACY: -nan
ITLB TIMELY PREFETCHES:          0 LATE PREFETCHES: 0 DROPPED PREFETCHES: 0
ITLB PREFETCHES SAME FILL-ORIGIN LEVEL: 0 DIFFERENT FILL-ORIGIN LEVEL: 0
ITLB AVERAGE MISS LATENCY: 587 cycles
ITLB RQ	ACCESS:   38168613	FORWARD:          0	MERGED:    4948424	TO_CACHE:   33220189

DTLB TOTAL     ACCESS:   54382491  HIT:   51915119  MISS:    2467372  HIT %:    95.4629  MISS %:    4.53707   MPKI: 12.3369
DTLB LOAD TRANSLATION ACCESS:   54382491  HIT:   51915119  MISS:    2467372  HIT %:    95.4629  MISS %:    4.53707   MPKI: 12.3369
DTLB PREFETCH  REQUESTED:          0  ISSUED:          0  USEFUL:          0  USELESS:          0
DTLB USEFUL LOAD PREFETCHES:          0 PREFETCH ISSUED TO LOWER LEVEL:          0  ACCURACY: -nan
DTLB TIMELY PREFETCHES:          0 LATE PREFETCHES: 0 DROPPED PREFETCHES: 0
DTLB PREFETCHES SAME FILL-ORIGIN LEVEL: 0 DIFFERENT FILL-ORIGIN LEVEL: 0
DTLB AVERAGE MISS LATENCY: 26.0166 cycles
DTLB RQ	ACCESS:   61559420	FORWARD:          0	MERGED:    7026187	TO_CACHE:   54533233

STLB TOTAL     ACCESS:   16515734  HIT:   15610050  MISS:     905684  HIT %:    94.5162  MISS %:    5.48376   MPKI: 4.52842
STLB LOAD TRANSLATION ACCESS:    2467374  HIT:    1584131  MISS:     883243  HIT %:    64.2031  MISS %:    35.7969   MPKI: 4.41621
STLB TRANSLATION FROM L1D PREFETCHER ACCESS:   14048360  HIT:   14025919  MISS:      22441  HIT %:    99.8403  MISS %:   0.159741   MPKI: 0.112205
STLB PREFETCH  REQUESTED:          0  ISSUED:          0  USEFUL:      22401  USELESS:         56
STLB USEFUL LOAD PREFETCHES:      22401 PREFETCH ISSUED TO LOWER LEVEL:          0  ACCURACY: inf
STLB TIMELY PREFETCHES:      22401 LATE PREFETCHES: 6870 DROPPED PREFETCHES: 391685
STLB PREFETCHES SAME FILL-ORIGIN LEVEL: 0 DIFFERENT FILL-ORIGIN LEVEL: 0
STLB AVERAGE MISS LATENCY: 47.0224 cycles
STLB RQ	ACCESS:   63445695	FORWARD:          0	MERGED:   46470791	TO_CACHE:   16974904

STLB Hit, L1D data hit: 0
STLB Hit, L2C data hit: 0
STLB Hit, LLC data hit: 0
STLB Hit, LLC data miss: 0
STLB STLB hints to L2: 0
L1D TOTAL     ACCESS:   94661348  HIT:   87515640  MISS:    7145708  HIT %:    92.4513  MISS %:    7.54871   MPKI: 35.7285
L1D LOAD      ACCESS:   38795919  HIT:   34534456  MISS:    4261463  HIT %:    89.0157  MISS %:    10.9843   MPKI: 21.3073
L1D RFO       ACCESS:   12791506  HIT:   11812531  MISS:     978975  HIT %:    92.3467  MISS %:    7.65332   MPKI: 4.89487
L1D PREFETCH  ACCESS:   43073923  HIT:   41168653  MISS:    1905270  HIT %:    95.5767  MISS %:    4.42326   MPKI: 9.52635
L1D PREFETCH  REQUESTED:  138867399  ISSUED:  137631879  USEFUL:    1624374  USELESS:     282017
L1D USEFUL LOAD PREFETCHES:    1624374 PREFETCH ISSUED TO LOWER LEVEL:   14963595  ACCURACY: 10.8555
L1D TIMELY PREFETCHES:    1624374 LATE PREFETCHES: 95407 DROPPED PREFETCHES: 1162404
L1D PREFETCHES SAME FILL-ORIGIN LEVEL: 2001798 DIFFERENT FILL-ORIGIN LEVEL: 12961797
L1D AVERAGE MISS LATENCY: 362.006 cycles
L1D RQ	ACCESS:   59192430	FORWARD:          0	MERGED:   19588661	TO_CACHE:   39588118
L1D WQ	ACCESS:   22112145	FORWARD:      15664	MERGED:     140843	TO_CACHE:   21971302
L1D PQ	ACCESS:   76653576	FORWARD:          0	MERGED:   15675260	TO_CACHE:   60978303

L1D UNIQUE REGIONS ACCESSED: 0
L1D REGIONS CONFLICTS: 0
L1D Cross Page Prefetch Requests: 10513792
L1D Same Page Prefetch Requests: 128563747
L1D ROI Sum of L1D PQ occupancy: 964225711
L1D PREFETCHES PUSHED FROM L2C: 0
L1I TOTAL     ACCESS:   38109390  HIT:   38109349  MISS:         41  HIT %:    99.9999  MISS %: 0.000107585   MPKI: 0.000205
L1I LOAD      ACCESS:   38109390  HIT:   38109349  MISS:         41  HIT %:    99.9999  MISS %: 0.000107585   MPKI: 0.000205
L1I PREFETCH  REQUESTED:          0  ISSUED:          0  USEFUL:          0  USELESS:          0
L1I USEFUL LOAD PREFETCHES:          0 PREFETCH ISSUED TO LOWER LEVEL:          0  ACCURACY: -nan
L1I TIMELY PREFETCHES:          0 LATE PREFETCHES: 0 DROPPED PREFETCHES: 0
L1I PREFETCHES SAME FILL-ORIGIN LEVEL: 0 DIFFERENT FILL-ORIGIN LEVEL: 0
L1I AVERAGE MISS LATENCY: 360.439 cycles
L1I RQ	ACCESS:   55708790	FORWARD:          0	MERGED:   17540177	TO_CACHE:   38168613

BTB TOTAL     ACCESS:   35526966  HIT:   35526802  MISS:        164  HIT %:    99.9995  MISS %: 0.000461621   MPKI: 0.00082
BTB BRANCH_DIRECT_JUMP	ACCESS:    1482252  HIT:    1482223  MISS:         29
BTB BRANCH_INDIRECT	ACCESS:          0  HIT:          0  MISS:          0
BTB BRANCH_CONDITIONAL	ACCESS:   34044658  HIT:   34044563  MISS:         95
BTB BRANCH_DIRECT_CALL	ACCESS:         28  HIT:          8  MISS:         20
BTB BRANCH_INDIRECT_CALL	ACCESS:          0  HIT:          0  MISS:          0
BTB BRANCH_RETURN	ACCESS:         28  HIT:          8  MISS:         20
BTB BRANCH_OTHER ACCESS:          0  HIT:          0  MISS:          0

L2C TOTAL     ACCESS:   19824070  HIT:   12100295  MISS:    7723775  HIT %:    61.0384  MISS %:    38.9616   MPKI: 38.6189
L2C LOAD      ACCESS:    4166096  HIT:     887395  MISS:    3278701  HIT %:    21.3004  MISS %:    78.6996   MPKI: 16.3935
L2C DATA LOAD MPKI: 16.3933
L2C INSTRUCTION LOAD MPKI: 0.000205
L2C RFO       ACCESS:     978975  HIT:          0  MISS:     978975  HIT %:          0  MISS %:        100   MPKI: 4.89487
L2C PREFETCH  ACCESS:   12075835  HIT:    8935836  MISS:    3139999  HIT %:    73.9977  MISS %:    26.0023   MPKI: 15.7
L2C DATA PREFETCH MPKI: 15.7
L2C INSTRUCTION PREFETCH MPKI: 0
L2C WRITEBACK ACCESS:    1298741  HIT:    1176815  MISS:     121926  HIT %:     90.612  MISS %:    9.38802   MPKI: 0.60963
L2C LOAD TRANSLATION ACCESS:     883320  HIT:     687124  MISS:     196196  HIT %:    77.7888  MISS %:    22.2112   MPKI: 0.98098
L2C TRANSLATION FROM L1D PREFETCHER ACCESS:     421103  HIT:     413125  MISS:       7978  HIT %:    98.1055  MISS %:    1.89455   MPKI: 0.03989
L2C PREFETCH  REQUESTED:          0  ISSUED:          0  USEFUL:     703233  USELESS:    2443319
L2C USEFUL LOAD PREFETCHES:     703233 PREFETCH ISSUED TO LOWER LEVEL:    3425801  ACCURACY: 20.5275
L2C TIMELY PREFETCHES:     703233 LATE PREFETCHES: 284681 DROPPED PREFETCHES: 0
L2C PREFETCHES SAME FILL-ORIGIN LEVEL: 2327520 DIFFERENT FILL-ORIGIN LEVEL: 0
L2C AVERAGE MISS LATENCY: 478.659 cycles
L2C RQ	ACCESS:    6449514	FORWARD:          0	MERGED:          0	TO_CACHE:    6449513
L2C WQ	ACCESS:    1298744	FORWARD:          1	MERGED:          0	TO_CACHE:    1298744
L2C PQ	ACCESS:   14963470	FORWARD:          0	MERGED:      93050	TO_CACHE:   14870420

L2C Instructions Evicting Data 41
L2C Translations Evicting Data 193816
L2C Data Evicting Data 7205660
L2C Instructions Evicting Instructions 0
L2C Translations Evicting Instructions 0
L2C Data Evicting Instructions 41
L2C Instructions Evicting Translations 0
L2C Translations Evicting Translations 10360
L2C Data Evicting Translations 193056
L2C Dense regions hint from L2: 0
PSCL5 TOTAL     ACCESS:    1304216  HIT:    1304216  MISS:          0  HIT %:        100  MISS %:          0   MPKI: 0
PSCL5 LOAD TRANSLATION ACCESS:     883220  HIT:     883220  MISS:          0  HIT %:        100  MISS %:          0   MPKI: 0
PSCL5 TRANSLATION FROM L1D PREFETCHER ACCESS:     420996  HIT:     420996  MISS:          0  HIT %:        100  MISS %:          0   MPKI: 0
PSCL5 PREFETCH  REQUESTED:          0  ISSUED:          0  USEFUL:          0  USELESS:          0
PSCL5 USEFUL LOAD PREFETCHES:          0 PREFETCH ISSUED TO LOWER LEVEL:          0  ACCURACY: -nan
PSCL5 TIMELY PREFETCHES:          0 LATE PREFETCHES: 0 DROPPED PREFETCHES: 0
PSCL5 PREFETCHES SAME FILL-ORIGIN LEVEL: 0 DIFFERENT FILL-ORIGIN LEVEL: 0

PSCL4 TOTAL     ACCESS:    1304216  HIT:    1304216  MISS:          0  HIT %:        100  MISS %:          0   MPKI: 0
PSCL4 LOAD TRANSLATION ACCESS:     883220  HIT:     883220  MISS:          0  HIT %:        100  MISS %:          0   MPKI: 0
PSCL4 TRANSLATION FROM L1D PREFETCHER ACCESS:     420996  HIT:     420996  MISS:          0  HIT %:        100  MISS %:          0   MPKI: 0
PSCL4 PREFETCH  REQUESTED:          0  ISSUED:          0  USEFUL:          0  USELESS:          0
PSCL4 USEFUL LOAD PREFETCHES:          0 PREFETCH ISSUED TO LOWER LEVEL:          0  ACCURACY: -nan
PSCL4 TIMELY PREFETCHES:          0 LATE PREFETCHES: 0 DROPPED PREFETCHES: 0
PSCL4 PREFETCHES SAME FILL-ORIGIN LEVEL: 0 DIFFERENT FILL-ORIGIN LEVEL: 0

PSCL3 TOTAL     ACCESS:    1304216  HIT:    1304216  MISS:          0  HIT %:        100  MISS %:          0   MPKI: 0
PSCL3 LOAD TRANSLATION ACCESS:     883220  HIT:     883220  MISS:          0  HIT %:        100  MISS %:          0   MPKI: 0
PSCL3 TRANSLATION FROM L1D PREFETCHER ACCESS:     420996  HIT:     420996  MISS:          0  HIT %:        100  MISS %:          0   MPKI: 0
PSCL3 PREFETCH  REQUESTED:          0  ISSUED:          0  USEFUL:          0  USELESS:          0
PSCL3 USEFUL LOAD PREFETCHES:          0 PREFETCH ISSUED TO LOWER LEVEL:          0  ACCURACY: -nan
PSCL3 TIMELY PREFETCHES:          0 LATE PREFETCHES: 0 DROPPED PREFETCHES: 0
PSCL3 PREFETCHES SAME FILL-ORIGIN LEVEL: 0 DIFFERENT FILL-ORIGIN LEVEL: 0

PSCL2 TOTAL     ACCESS:    1303526  HIT:    1303224  MISS:        302  HIT %:    99.9768  MISS %:  0.0231679   MPKI: 0.00151
PSCL2 LOAD TRANSLATION ACCESS:     883266  HIT:     882964  MISS:        302  HIT %:    99.9658  MISS %:  0.0341913   MPKI: 0.00151
PSCL2 TRANSLATION FROM L1D PREFETCHER ACCESS:     420260  HIT:     420260  MISS:          0  HIT %:        100  MISS %:          0   MPKI: 0
PSCL2 PREFETCH  REQUESTED:          0  ISSUED:          0  USEFUL:          0  USELESS:          0
PSCL2 USEFUL LOAD PREFETCHES:          0 PREFETCH ISSUED TO LOWER LEVEL:          0  ACCURACY: -nan
PSCL2 TIMELY PREFETCHES:          0 LATE PREFETCHES: 0 DROPPED PREFETCHES: 0
PSCL2 PREFETCHES SAME FILL-ORIGIN LEVEL: 0 DIFFERENT FILL-ORIGIN LEVEL: 0

LLC TOTAL     ACCESS:    8903184  HIT:    1998557  MISS:    6904627  HIT %:    22.4477  MISS %:    77.5523   MPKI: 34.5231
LLC LOAD      ACCESS:    2994020  HIT:     560466  MISS:    2433554  HIT %:    18.7195  MISS %:    81.2805   MPKI: 12.1678
LLC RFO       ACCESS:     978975  HIT:          0  MISS:     978975  HIT %:          0  MISS %:        100   MPKI: 4.89487
LLC PREFETCH  ACCESS:    3424680  HIT:        651  MISS:    3424029  HIT %:  0.0190091  MISS %:     99.981   MPKI: 17.1201
LLC WRITEBACK ACCESS:    1301335  HIT:    1249932  MISS:      51403  HIT %:      96.05  MISS %:    3.95002   MPKI: 0.257015
LLC LOAD TRANSLATION ACCESS:     196196  HIT:     187067  MISS:       9129  HIT %:     95.347  MISS %:      4.653   MPKI: 0.045645
LLC TRANSLATION FROM L1D PREFETCHER ACCESS:       7978  HIT:        441  MISS:       7537  HIT %:     5.5277  MISS %:    94.4723   MPKI: 0.037685
LLC PREFETCH  REQUESTED:          0  ISSUED:          0  USEFUL:      57004  USELESS:   13677320
LLC USEFUL LOAD PREFETCHES:      57004 PREFETCH ISSUED TO LOWER LEVEL:   94567274  ACCURACY: 0.0602788
LLC TIMELY PREFETCHES:      57004 LATE PREFETCHES: 0 DROPPED PREFETCHES: 0
LLC PREFETCHES SAME FILL-ORIGIN LEVEL: 0 DIFFERENT FILL-ORIGIN LEVEL: 0
LLC AVERAGE MISS LATENCY: 2064.67 cycles
LLC RQ	ACCESS:   16681225	FORWARD:          0	MERGED:          0	TO_CACHE:   16681225
LLC WQ	ACCESS:    5205637	FORWARD:          0	MERGED:          0	TO_CACHE:    5205637
LLC PQ	ACCESS:   13708464	FORWARD:          0	MERGED:          0	TO_CACHE:   13708464

LLC Dense regions hint to LLC: 0

RAW hits: 5019192
Loads Generated: 64140560
Loads sent to L1D: 59121363
Stores Generated: 22112126
Stores sent to L1D: 22112127
Major fault: 0 Minor fault: 71638
Allocated PAGES: 286552

CPU 1 cumulative IPC: 0.231938 instructions: 200000000 cycles: 862299663
ITLB TOTAL     ACCESS:   33161754  HIT:   33161752  MISS:          2  HIT %:        100  MISS %: 6.03104e-06   MPKI: 1e-05
ITLB LOAD TRANSLATION ACCESS:   33161754  HIT:   33161752  MISS:          2  HIT %:        100  MISS %: 6.03104e-06   MPKI: 1e-05
ITLB PREFETCH  REQUESTED:          0  ISSUED:          0  USEFUL:          0  USELESS:          0
ITLB USEFUL LOAD PREFETCHES:          0 PREFETCH ISSUED TO LOWER LEVEL:          0  ACCURACY: -nan
ITLB TIMELY PREFETCHES:          0 LATE PREFETCHES: 0 DROPPED PREFETCHES: 0
ITLB PREFETCHES SAME FILL-ORIGIN LEVEL: 0 DIFFERENT FILL-ORIGIN LEVEL: 0
ITLB AVERAGE MISS LATENCY: 798.5 cycles
ITLB RQ	ACCESS:   38110189	FORWARD:          0	MERGED:    4948435	TO_CACHE:   33161754

DTLB TOTAL     ACCESS:   54385812  HIT:   51918337  MISS:    2467475  HIT %:     95.463  MISS %:    4.53698   MPKI: 12.3374
DTLB LOAD TRANSLATION ACCESS:   54385812  HIT:   51918337  MISS:    2467475  HIT %:     95.463  MISS %:    4.53698   MPKI: 12.3374
DTLB PREFETCH  REQUESTED:          0  ISSUED:          0  USEFUL:          0  USELESS:          0
DTLB USEFUL LOAD PREFETCHES:          0 PREFETCH ISSUED TO LOWER LEVEL:          0  ACCURACY: -nan
DTLB TIMELY PREFETCHES:          0 LATE PREFETCHES: 0 DROPPED PREFETCHES: 0
DTLB PREFETCHES SAME FILL-ORIGIN LEVEL: 0 DIFFERENT FILL-ORIGIN LEVEL: 0
DTLB AVERAGE MISS LATENCY: 26.0046 cycles
DTLB RQ	ACCESS:   61533381	FORWARD:          0	MERGED:    7026745	TO_CACHE:   54506636

STLB TOTAL     ACCESS:   16531303  HIT:   15625610  MISS:     905693  HIT %:    94.5213  MISS %:    5.47865   MPKI: 4.52846
STLB LOAD TRANSLATION ACCESS:    2467477  HIT:    1584174  MISS:     883303  HIT %:    64.2022  MISS %:    35.7978   MPKI: 4.41652
STLB TRANSLATION FROM L1D PREFETCHER ACCESS:   14063826  HIT:   14041436  MISS:      22390  HIT %:    99.8408  MISS %:   0.159203   MPKI: 0.11195
STLB PREFETCH  REQUESTED:          0  ISSUED:          0  USEFUL:      22325  USELESS:         64
STLB USEFUL LOAD PREFETCHES:      22325 PREFETCH ISSUED TO LOWER LEVEL:          0  ACCURACY: inf
STLB TIMELY PREFETCHES:      22325 LATE PREFETCHES: 6858 DROPPED PREFETCHES: 393578
STLB PREFETCHES SAME FILL-ORIGIN LEVEL: 0 DIFFERENT FILL-ORIGIN LEVEL: 0
STLB AVERAGE MISS LATENCY: 47.009 cycles
STLB RQ	ACCESS:   63416006	FORWARD:          0	MERGED:   46446637	TO_CACHE:   16969369

STLB Hit, L1D data hit: 0
STLB Hit, L2C data hit: 0
STLB Hit, LLC data hit: 0
STLB Hit, LLC data miss: 0
STLB STLB hints to L2: 0
L1D TOTAL     ACCESS:   94565195  HIT:   87418708  MISS:    7146487  HIT %:    92.4428  MISS %:    7.55721   MPKI: 35.7324
L1D LOAD      ACCESS:   38806201  HIT:   34547889  MISS:    4258312  HIT %:    89.0267  MISS %:    10.9733   MPKI: 21.2916
L1D RFO       ACCESS:   12744276  HIT:   11765300  MISS:     978976  HIT %:    92.3183  MISS %:    7.68169   MPKI: 4.89488
L1D PREFETCH  ACCESS:   43014718  HIT:   41105519  MISS:    1909199  HIT %:    95.5615  MISS %:    4.43848   MPKI: 9.54599
L1D PREFETCH  REQUESTED:  138796761  ISSUED:  137544444  USEFUL:    1626365  USELESS:     282830
L1D USEFUL LOAD PREFETCHES:    1626365 PREFETCH ISSUED TO LOWER LEVEL:   15037837  ACCURACY: 10.8152
L1D TIMELY PREFETCHES:    1626365 LATE PREFETCHES: 96752 DROPPED PREFETCHES: 1172481
L1D PREFETCHES SAME FILL-ORIGIN LEVEL: 2005955 DIFFERENT FILL-ORIGIN LEVEL: 13031882
L1D AVERAGE MISS LATENCY: 362.862 cycles
L1D RQ	ACCESS:   59122962	FORWARD:          0	MERGED:   19546156	TO_CACHE:   39561269
L1D WQ	ACCESS:   22112134	FORWARD:      15549	MERGED:     140022	TO_CACHE:   21972112
L1D PQ	ACCESS:   76595915	FORWARD:          0	MERGED:   15647374	TO_CACHE:   60948529

L1D UNIQUE REGIONS ACCESSED: 0
L1D REGIONS CONFLICTS: 0
L1D Cross Page Prefetch Requests: 10511473
L1D Same Page Prefetch Requests: 128458533
L1D ROI Sum of L1D PQ occupancy: 965574221
L1D PREFETCHES PUSHED FROM L2C: 0
L1I TOTAL     ACCESS:   38110186  HIT:   38110145  MISS:         41  HIT %:    99.9999  MISS %: 0.000107583   MPKI: 0.000205
L1I LOAD      ACCESS:   38110186  HIT:   38110145  MISS:         41  HIT %:    99.9999  MISS %: 0.000107583   MPKI: 0.000205
L1I PREFETCH  REQUESTED:          0  ISSUED:          0  USEFUL:          0  USELESS:          0
L1I USEFUL LOAD PREFETCHES:          0 PREFETCH ISSUED TO LOWER LEVEL:          0  ACCURACY: -nan
L1I TIMELY PREFETCHES:          0 LATE PREFETCHES: 0 DROPPED PREFETCHES: 0
L1I PREFETCHES SAME FILL-ORIGIN LEVEL: 0 DIFFERENT FILL-ORIGIN LEVEL: 0
L1I AVERAGE MISS LATENCY: 376.463 cycles
L1I RQ	ACCESS:   55596579	FORWARD:          0	MERGED:   17486390	TO_CACHE:   38110189

BTB TOTAL     ACCESS:   35526962  HIT:   35526797  MISS:        165  HIT %:    99.9995  MISS %: 0.000464436   MPKI: 0.000825
BTB BRANCH_DIRECT_JUMP	ACCESS:    1482252  HIT:    1482223  MISS:         29
BTB BRANCH_INDIRECT	ACCESS:          0  HIT:          0  MISS:          0
BTB BRANCH_CONDITIONAL	ACCESS:   34044654  HIT:   34044558  MISS:         96
BTB BRANCH_DIRECT_CALL	ACCESS:         28  HIT:          8  MISS:         20
BTB BRANCH_INDIRECT_CALL	ACCESS:          0  HIT:          0  MISS:          0
BTB BRANCH_RETURN	ACCESS:         28  HIT:          8  MISS:         20
BTB BRANCH_OTHER ACCESS:          0  HIT:          0  MISS:          0

L2C TOTAL     ACCESS:   19893761  HIT:   12167512  MISS:    7726249  HIT %:    61.1625  MISS %:    38.8375   MPKI: 38.6312
L2C LOAD      ACCESS:    4161599  HIT:     885876  MISS:    3275723  HIT %:    21.2869  MISS %:    78.7131   MPKI: 16.3786
L2C DATA LOAD MPKI: 16.3784
L2C INSTRUCTION LOAD MPKI: 0.000205
L2C RFO       ACCESS:     978976  HIT:          0  MISS:     978976  HIT %:          0  MISS %:        100   MPKI: 4.89488
L2C PREFETCH  ACCESS:   12148146  HIT:    9005197  MISS:    3142949  HIT %:    74.1282  MISS %:    25.8718   MPKI: 15.7147
L2C DATA PREFETCH MPKI: 15.7147
L2C INSTRUCTION PREFETCH MPKI: 0
L2C WRITEBACK ACCESS:    1298743  HIT:    1178292  MISS:     120451  HIT %:    90.7256  MISS %:    9.27443   MPKI: 0.602255
L2C LOAD TRANSLATION ACCESS:     883385  HIT:     683176  MISS:     200209  HIT %:    77.3362  MISS %:    22.6638   MPKI: 1.00104
L2C TRANSLATION FROM L1D PREFETCHER ACCESS:     422912  HIT:     414971  MISS:       7941  HIT %:    98.1223  MISS %:     1.8777   MPKI: 0.039705
L2C PREFETCH  REQUESTED:          0  ISSUED:          0  USEFUL:     701259  USELESS:    2447078
L2C USEFUL LOAD PREFETCHES:     701259 PREFETCH ISSUED TO LOWER LEVEL:    3427594  ACCURACY: 20.4592
L2C TIMELY PREFETCHES:     701259 LATE PREFETCHES: 284643 DROPPED PREFETCHES: 0
L2C PREFETCHES SAME FILL-ORIGIN LEVEL: 2327754 DIFFERENT FILL-ORIGIN LEVEL: 0
L2C AVERAGE MISS LATENCY: 479.874 cycles
L2C RQ	ACCESS:    6446874	FORWARD:          0	MERGED:          0	TO_CACHE:    6446872
L2C WQ	ACCESS:    1298743	FORWARD:          2	MERGED:          0	TO_CACHE:    1298743
L2C PQ	ACCESS:   15037715	FORWARD:          0	MERGED:      92205	TO_CACHE:   14945510

L2C Instructions Evicting Data 41
L2C Translations Evicting Data 192049
L2C Data Evicting Data 7206338
L2C Instructions Evicting Instructions 0
L2C Translations Evicting Instructions 0
L2C Data Evicting Instructions 42
L2C Instructions Evicting Translations 0
L2C Translations Evicting Translations 16101
L2C Data Evicting Translations 191227
L2C Dense regions hint from L2: 0
PSCL5 TOTAL     ACCESS:    1306110  HIT:    1306110  MISS:          0  HIT %:        100  MISS %:          0   MPKI: 0
PSCL5 LOAD TRANSLATION ACCESS:     883284  HIT:     883284  MISS:          0  HIT %:        100  MISS %:          0   MPKI: 0
PSCL5 TRANSLATION FROM L1D PREFETCHER ACCESS:     422826  HIT:     422826  MISS:          0  HIT %:        100  MISS %:          0   MPKI: 0
PSCL5 PREFETCH  REQUESTED:          0  ISSUED:          0  USEFUL:          0  USELESS:          0
PSCL5 USEFUL LOAD PREFETCHES:          0 PREFETCH ISSUED TO LOWER LEVEL:          0  ACCURACY: -nan
PSCL5 TIMELY PREFETCHES:          0 LATE PREFETCHES: 0 DROPPED PREFETCHES: 0
PSCL5 PREFETCHES SAME FILL-ORIGIN LEVEL: 0 DIFFERENT FILL-ORIGIN LEVEL: 0

PSCL4 TOTAL     ACCESS:    1306110  HIT:    1306110  MISS:          0  HIT %:        100  MISS %:          0   MPKI: 0
PSCL4 LOAD TRANSLATION ACCESS:     883284  HIT:     883284  MISS:          0  HIT %:        100  MISS %:          0   MPKI: 0
PSCL4 TRANSLATION FROM L1D PREFETCHER ACCESS:     422826  HIT:     422826  MISS:          0  HIT %:        100  MISS %:          0   MPKI: 0
PSCL4 PREFETCH  REQUESTED:          0  ISSUED:          0  USEFUL:          0  USELESS:          0
PSCL4 USEFUL LOAD PREFETCHES:          0 PREFETCH ISSUED TO LOWER LEVEL:          0  ACCURACY: -nan
PSCL4 TIMELY PREFETCHES:          0 LATE PREFETCHES: 0 DROPPED PREFETCHES: 0
PSCL4 PREFETCHES SAME FILL-ORIGIN LEVEL: 0 DIFFERENT FILL-ORIGIN LEVEL: 0

PSCL3 TOTAL     ACCESS:    1306110  HIT:    1306110  MISS:          0  HIT %:        100  MISS %:          0   MPKI: 0
PSCL3 LOAD TRANSLATION ACCESS:     883284  HIT:     883284  MISS:          0  HIT %:        100  MISS %:          0   MPKI: 0
PSCL3 TRANSLATION FROM L1D PREFETCHER ACCESS:     422826  HIT:     422826  MISS:          0  HIT %:        100  MISS %:          0   MPKI: 0
PSCL3 PREFETCH  REQUESTED:          0  ISSUED:          0  USEFUL:          0  USELESS:          0
PSCL3 USEFUL LOAD PREFETCHES:          0 PREFETCH ISSUED TO LOWER LEVEL:          0  ACCURACY: -nan
PSCL3 TIMELY PREFETCHES:          0 LATE PREFETCHES: 0 DROPPED PREFETCHES: 0
PSCL3 PREFETCHES SAME FILL-ORIGIN LEVEL: 0 DIFFERENT FILL-ORIGIN LEVEL: 0

PSCL2 TOTAL     ACCESS:    1305312  HIT:    1305010  MISS:        302  HIT %:    99.9769  MISS %:  0.0231362   MPKI: 0.00151
PSCL2 LOAD TRANSLATION ACCESS:     883329  HIT:     883027  MISS:        302  HIT %:    99.9658  MISS %:  0.0341888   MPKI: 0.00151
PSCL2 TRANSLATION FROM L1D PREFETCHER ACCESS:     421983  HIT:     421983  MISS:          0  HIT %:        100  MISS %:          0   MPKI: 0
PSCL2 PREFETCH  REQUESTED:          0  ISSUED:          0  USEFUL:          0  USELESS:          0
PSCL2 USEFUL LOAD PREFETCHES:          0 PREFETCH ISSUED TO LOWER LEVEL:          0  ACCURACY: -nan
PSCL2 TIMELY PREFETCHES:          0 LATE PREFETCHES: 0 DROPPED PREFETCHES: 0
PSCL2 PREFETCHES SAME FILL-ORIGIN LEVEL: 0 DIFFERENT FILL-ORIGIN LEVEL: 0

LLC TOTAL     ACCESS:    8907223  HIT:    2001431  MISS:    6905792  HIT %:    22.4698  MISS %:    77.5302   MPKI: 34.529
LLC LOAD      ACCESS:    2991080  HIT:     558400  MISS:    2432680  HIT %:    18.6688  MISS %:    81.3312   MPKI: 12.1634
LLC RFO       ACCESS:     978976  HIT:          0  MISS:     978976  HIT %:          0  MISS %:        100   MPKI: 4.89488
LLC PREFETCH  ACCESS:    3427593  HIT:        737  MISS:    3426856  HIT %:   0.021502  MISS %:    99.9785   MPKI: 17.1343
LLC WRITEBACK ACCESS:    1301424  HIT:    1250781  MISS:      50643  HIT %:    96.1086  MISS %:    3.89135   MPKI: 0.253215
LLC LOAD TRANSLATION ACCESS:     200209  HIT:     191058  MISS:       9151  HIT %:    95.4293  MISS %:    4.57072   MPKI: 0.045755
LLC TRANSLATION FROM L1D PREFETCHER ACCESS:       7941  HIT:        455  MISS:       7486  HIT %:    5.72976  MISS %:    94.2702   MPKI: 0.03743
LLC PREFETCH  REQUESTED:          0  ISSUED:          0  USEFUL:      57004  USELESS:   13677320
LLC USEFUL LOAD PREFETCHES:      57004 PREFETCH ISSUED TO LOWER LEVEL:   94567274  ACCURACY: 0.0602788
LLC TIMELY PREFETCHES:      57004 LATE PREFETCHES: 0 DROPPED PREFETCHES: 0
LLC PREFETCHES SAME FILL-ORIGIN LEVEL: 0 DIFFERENT FILL-ORIGIN LEVEL: 0
LLC AVERAGE MISS LATENCY: 2064.32 cycles
LLC RQ	ACCESS:   16681225	FORWARD:          0	MERGED:          0	TO_CACHE:   16681225
LLC WQ	ACCESS:    5205637	FORWARD:          0	MERGED:          0	TO_CACHE:    5205637
LLC PQ	ACCESS:   13708464	FORWARD:          0	MERGED:          0	TO_CACHE:   13708464

LLC Dense regions hint to LLC: 0

RAW hits: 5017591
Loads Generated: 64140554
Loads sent to L1D: 59122962
Stores Generated: 22112133
Stores sent to L1D: 22112134
Major fault: 0 Minor fault: 71638
Allocated PAGES: 286552

CPU 2 cumulative IPC: 0.231971 instructions: 200000002 cycles: 862178540
ITLB TOTAL     ACCESS:   33161080  HIT:   33161078  MISS:          2  HIT %:        100  MISS %: 6.03117e-06   MPKI: 1e-05
ITLB LOAD TRANSLATION ACCESS:   33161080  HIT:   33161078  MISS:          2  HIT %:        100  MISS %: 6.03117e-06   MPKI: 1e-05
ITLB PREFETCH  REQUESTED:          0  ISSUED:          0  USEFUL:          0  USELESS:          0
ITLB USEFUL LOAD PREFETCHES:          0 PREFETCH ISSUED TO LOWER LEVEL:          0  ACCURACY: -nan
ITLB TIMELY PREFETCHES:          0 LATE PREFETCHES: 0 DROPPED PREFETCHES: 0
ITLB PREFETCHES SAME FILL-ORIGIN LEVEL: 0 DIFFERENT FILL-ORIGIN LEVEL: 0
ITLB AVERAGE MISS LATENCY: 665 cycles
ITLB RQ	ACCESS:   38133815	FORWARD:          0	MERGED:    4948529	TO_CACHE:   33185286

DTLB TOTAL     ACCESS:   54378450  HIT:   51911095  MISS:    2467355  HIT %:    95.4626  MISS %:    4.53738   MPKI: 12.3368
DTLB LOAD TRANSLATION ACCESS:   54378450  HIT:   51911095  MISS:    2467355  HIT %:    95.4626  MISS %:    4.53738   MPKI: 12.3368
DTLB PREFETCH  REQUESTED:          0  ISSUED:          0  USEFUL:          0  USELESS:          0
DTLB USEFUL LOAD PREFETCHES:          0 PREFETCH ISSUED TO LOWER LEVEL:          0  ACCURACY: -nan
DTLB TIMELY PREFETCHES:          0 LATE PREFETCHES: 0 DROPPED PREFETCHES: 0
DTLB PREFETCHES SAME FILL-ORIGIN LEVEL: 0 DIFFERENT FILL-ORIGIN LEVEL: 0
DTLB AVERAGE MISS LATENCY: 25.7802 cycles
DTLB RQ	ACCESS:   61538672	FORWARD:          0	MERGED:    7026524	TO_CACHE:   54512148

STLB TOTAL     ACCESS:   16519735  HIT:   15614067  MISS:     905668  HIT %:    94.5177  MISS %:    5.48234   MPKI: 4.52834
STLB LOAD TRANSLATION ACCESS:    2467357  HIT:    1584095  MISS:     883262  HIT %:    64.2021  MISS %:    35.7979   MPKI: 4.41631
STLB TRANSLATION FROM L1D PREFETCHER ACCESS:   14052378  HIT:   14029972  MISS:      22406  HIT %:    99.8406  MISS %:   0.159446   MPKI: 0.11203
STLB PREFETCH  REQUESTED:          0  ISSUED:          0  USEFUL:      22359  USELESS:         53
STLB USEFUL LOAD PREFETCHES:      22359 PREFETCH ISSUED TO LOWER LEVEL:          0  ACCURACY: inf
STLB TIMELY PREFETCHES:      22359 LATE PREFETCHES: 6856 DROPPED PREFETCHES: 390709
STLB PREFETCHES SAME FILL-ORIGIN LEVEL: 0 DIFFERENT FILL-ORIGIN LEVEL: 0
STLB AVERAGE MISS LATENCY: 46.3643 cycles
STLB RQ	ACCESS:   63195225	FORWARD:          0	MERGED:   46231399	TO_CACHE:   16963826

STLB Hit, L1D data hit: 0
STLB Hit, L2C data hit: 0
STLB Hit, LLC data hit: 0
STLB Hit, LLC data miss: 0
STLB STLB hints to L2: 0
L1D TOTAL     ACCESS:   94421989  HIT:   87275318  MISS:    7146671  HIT %:    92.4311  MISS %:    7.56886   MPKI: 35.7334
L1D LOAD      ACCESS:   38789432  HIT:   34525573  MISS:    4263859  HIT %:    89.0077  MISS %:    10.9923   MPKI: 21.3193
L1D RFO       ACCESS:   12753710  HIT:   11774734  MISS:     978976  HIT %:     92.324  MISS %:    7.67601   MPKI: 4.89488
L1D PREFETCH  ACCESS:   42878847  HIT:   40975011  MISS:    1903836  HIT %:      95.56  MISS %:    4.44004   MPKI: 9.51918
L1D PREFETCH  REQUESTED:  138230543  ISSUED:  136989409  USEFUL:    1621293  USELESS:     282991
L1D USEFUL LOAD PREFETCHES:    1621293 PREFETCH ISSUED TO LOWER LEVEL:   14970170  ACCURACY: 10.8302
L1D TIMELY PREFETCHES:    1621293 LATE PREFETCHES: 95763 DROPPED PREFETCHES: 1156038
L1D PREFETCHES SAME FILL-ORIGIN LEVEL: 2000064 DIFFERENT FILL-ORIGIN LEVEL: 12970106
L1D AVERAGE MISS LATENCY: 362.507 cycles
L1D RQ	ACCESS:   59152752	FORWARD:          0	MERGED:   19570139	TO_CACHE:   39566997
L1D WQ	ACCESS:   22112146	FORWARD:      15624	MERGED:     140471	TO_CACHE:   21971675
L1D PQ	ACCESS:   76261549	FORWARD:          0	MERGED:   15533681	TO_CACHE:   60727860

L1D UNIQUE REGIONS ACCESSED: 0
L1D REGIONS CONFLICTS: 0
L1D Cross Page Prefetch Requests: 10478505
L1D Same Page Prefetch Requests: 127964773
L1D ROI Sum of L1D PQ occupancy: 961844061
L1D PREFETCHES PUSHED FROM L2C: 0
L1I TOTAL     ACCESS:   38109606  HIT:   38109565  MISS:         41  HIT %:    99.9999  MISS %: 0.000107584   MPKI: 0.000205
L1I LOAD      ACCESS:   38109606  HIT:   38109565  MISS:         41  HIT %:    99.9999  MISS %: 0.000107584   MPKI: 0.000205
L1I PREFETCH  REQUESTED:          0  ISSUED:          0  USEFUL:          0  USELESS:          0
L1I USEFUL LOAD PREFETCHES:          0 PREFETCH ISSUED TO LOWER LEVEL:          0  ACCURACY: -nan
L1I TIMELY PREFETCHES:          0 LATE PREFETCHES: 0 DROPPED PREFETCHES: 0
L1I PREFETCHES SAME FILL-ORIGIN LEVEL: 0 DIFFERENT FILL-ORIGIN LEVEL: 0
L1I AVERAGE MISS LATENCY: 354.098 cycles
L1I RQ	ACCESS:   55645094	FORWARD:          0	MERGED:   17511279	TO_CACHE:   38133815

BTB TOTAL     ACCESS:   35526976  HIT:   35526811  MISS:        165  HIT %:    99.9995  MISS %: 0.000464436   MPKI: 0.000825
BTB BRANCH_DIRECT_JUMP	ACCESS:    1482252  HIT:    1482223  MISS:         29
BTB BRANCH_INDIRECT	ACCESS:          0  HIT:          0  MISS:          0
BTB BRANCH_CONDITIONAL	ACCESS:   34044668  HIT:   34044572  MISS:         96
BTB BRANCH_DIRECT_CALL	ACCESS:         28  HIT:          8  MISS:         20
BTB BRANCH_INDIRECT_CALL	ACCESS:          0  HIT:          0  MISS:          0
BTB BRANCH_RETURN	ACCESS:         28  HIT:          8  MISS:         20
BTB BRANCH_OTHER ACCESS:          0  HIT:          0  MISS:          0

L2C TOTAL     ACCESS:   19822535  HIT:   12114508  MISS:    7708027  HIT %:    61.1148  MISS %:    38.8852   MPKI: 38.5401
L2C LOAD      ACCESS:    4168134  HIT:     888750  MISS:    3279384  HIT %:    21.3225  MISS %:    78.6775   MPKI: 16.3969
L2C DATA LOAD MPKI: 16.3967
L2C INSTRUCTION LOAD MPKI: 0.000205
L2C RFO       ACCESS:     978976  HIT:          0  MISS:     978976  HIT %:          0  MISS %:        100   MPKI: 4.89488
L2C PREFETCH  ACCESS:   12073280  HIT:    8931981  MISS:    3141299  HIT %:    73.9814  MISS %:    26.0186   MPKI: 15.7065
L2C DATA PREFETCH MPKI: 15.7065
L2C INSTRUCTION PREFETCH MPKI: 0
L2C WRITEBACK ACCESS:    1298743  HIT:    1179596  MISS:     119147  HIT %:     90.826  MISS %:    9.17402   MPKI: 0.595735
L2C LOAD TRANSLATION ACCESS:     883344  HIT:     702099  MISS:     181245  HIT %:    79.4819  MISS %:    20.5181   MPKI: 0.906225
L2C TRANSLATION FROM L1D PREFETCHER ACCESS:     420058  HIT:     412082  MISS:       7976  HIT %:    98.1012  MISS %:    1.89879   MPKI: 0.03988
L2C PREFETCH  REQUESTED:          0  ISSUED:          0  USEFUL:     705406  USELESS:    2441746
L2C USEFUL LOAD PREFETCHES:     705406 PREFETCH ISSUED TO LOWER LEVEL:    3426969  ACCURACY: 20.584
L2C TIMELY PREFETCHES:     705406 LATE PREFETCHES: 285208 DROPPED PREFETCHES: 0
L2C PREFETCHES SAME FILL-ORIGIN LEVEL: 2328524 DIFFERENT FILL-ORIGIN LEVEL: 0
L2C AVERAGE MISS LATENCY: 480.194 cycles
L2C RQ	ACCESS:    6450523	FORWARD:          0	MERGED:          0	TO_CACHE:    6450520
L2C WQ	ACCESS:    1298744	FORWARD:          3	MERGED:          0	TO_CACHE:    1298744
L2C PQ	ACCESS:   14970118	FORWARD:          0	MERGED:      91543	TO_CACHE:   14878575

L2C Instructions Evicting Data 41
L2C Translations Evicting Data 184141
L2C Data Evicting Data 7216580
L2C Instructions Evicting Instructions 0
L2C Translations Evicting Instructions 0
L2C Data Evicting Instructions 45
L2C Instructions Evicting Translations 0
L2C Translations Evicting Translations 5080
L2C Data Evicting Translations 183455
L2C Dense regions hint from L2: 0
PSCL5 TOTAL     ACCESS:    1303215  HIT:    1303215  MISS:          0  HIT %:        100  MISS %:          0   MPKI: 0
PSCL5 LOAD TRANSLATION ACCESS:     883244  HIT:     883244  MISS:          0  HIT %:        100  MISS %:          0   MPKI: 0
PSCL5 TRANSLATION FROM L1D PREFETCHER ACCESS:     419971  HIT:     419971  MISS:          0  HIT %:        100  MISS %:          0   MPKI: 0
PSCL5 PREFETCH  REQUESTED:          0  ISSUED:          0  USEFUL:          0  USELESS:          0
PSCL5 USEFUL LOAD PREFETCHES:          0 PREFETCH ISSUED TO LOWER LEVEL:          0  ACCURACY: -nan
PSCL5 TIMELY PREFETCHES:          0 LATE PREFETCHES: 0 DROPPED PREFETCHES: 0
PSCL5 PREFETCHES SAME FILL-ORIGIN LEVEL: 0 DIFFERENT FILL-ORIGIN LEVEL: 0

PSCL4 TOTAL     ACCESS:    1303215  HIT:    1303215  MISS:          0  HIT %:        100  MISS %:          0   MPKI: 0
PSCL4 LOAD TRANSLATION ACCESS:     883244  HIT:     883244  MISS:          0  HIT %:        100  MISS %:          0   MPKI: 0
PSCL4 TRANSLATION FROM L1D PREFETCHER ACCESS:     419971  HIT:     419971  MISS:          0  HIT %:        100  MISS %:          0   MPKI: 0
PSCL4 PREFETCH  REQUESTED:          0  ISSUED:          0  USEFUL:          0  USELESS:          0
PSCL4 USEFUL LOAD PREFETCHES:          0 PREFETCH ISSUED TO LOWER LEVEL:          0  ACCURACY: -nan
PSCL4 TIMELY PREFETCHES:          0 LATE PREFETCHES: 0 DROPPED PREFETCHES: 0
PSCL4 PREFETCHES SAME FILL-ORIGIN LEVEL: 0 DIFFERENT FILL-ORIGIN LEVEL: 0

PSCL3 TOTAL     ACCESS:    1303215  HIT:    1303215  MISS:          0  HIT %:        100  MISS %:          0   MPKI: 0
PSCL3 LOAD TRANSLATION ACCESS:     883244  HIT:     883244  MISS:          0  HIT %:        100  MISS %:          0   MPKI: 0
PSCL3 TRANSLATION FROM L1D PREFETCHER ACCESS:     419971  HIT:     419971  MISS:          0  HIT %:        100  MISS %:          0   MPKI: 0
PSCL3 PREFETCH  REQUESTED:          0  ISSUED:          0  USEFUL:          0  USELESS:          0
PSCL3 USEFUL LOAD PREFETCHES:          0 PREFETCH ISSUED TO LOWER LEVEL:          0  ACCURACY: -nan
PSCL3 TIMELY PREFETCHES:          0 LATE PREFETCHES: 0 DROPPED PREFETCHES: 0
PSCL3 PREFETCHES SAME FILL-ORIGIN LEVEL: 0 DIFFERENT FILL-ORIGIN LEVEL: 0

PSCL2 TOTAL     ACCESS:    1302488  HIT:    1302186  MISS:        302  HIT %:    99.9768  MISS %:  0.0231864   MPKI: 0.00151
PSCL2 LOAD TRANSLATION ACCESS:     883290  HIT:     882988  MISS:        302  HIT %:    99.9658  MISS %:  0.0341904   MPKI: 0.00151
PSCL2 TRANSLATION FROM L1D PREFETCHER ACCESS:     419198  HIT:     419198  MISS:          0  HIT %:        100  MISS %:          0   MPKI: 0
PSCL2 PREFETCH  REQUESTED:          0  ISSUED:          0  USEFUL:          0  USELESS:          0
PSCL2 USEFUL LOAD PREFETCHES:          0 PREFETCH ISSUED TO LOWER LEVEL:          0  ACCURACY: -nan
PSCL2 TIMELY PREFETCHES:          0 LATE PREFETCHES: 0 DROPPED PREFETCHES: 0
PSCL2 PREFETCHES SAME FILL-ORIGIN LEVEL: 0 DIFFERENT FILL-ORIGIN LEVEL: 0

LLC TOTAL     ACCESS:    8890346  HIT:    1984534  MISS:    6905812  HIT %:    22.3223  MISS %:    77.6777   MPKI: 34.5291
LLC LOAD      ACCESS:    2994176  HIT:     560171  MISS:    2434005  HIT %:    18.7087  MISS %:    81.2913   MPKI: 12.17
LLC RFO       ACCESS:     978976  HIT:          0  MISS:     978976  HIT %:          0  MISS %:        100   MPKI: 4.89488
LLC PREFETCH  ACCESS:    3426507  HIT:        680  MISS:    3425827  HIT %:  0.0198453  MISS %:    99.9802   MPKI: 17.1291
LLC WRITEBACK ACCESS:    1301466  HIT:    1251252  MISS:      50214  HIT %:    96.1417  MISS %:    3.85826   MPKI: 0.25107
LLC LOAD TRANSLATION ACCESS:     181245  HIT:     171942  MISS:       9303  HIT %:    94.8672  MISS %:    5.13283   MPKI: 0.046515
LLC TRANSLATION FROM L1D PREFETCHER ACCESS:       7976  HIT:        489  MISS:       7487  HIT %:    6.13089  MISS %:    93.8691   MPKI: 0.037435
LLC PREFETCH  REQUESTED:          0  ISSUED:          0  USEFUL:      57004  USELESS:   13677320
LLC USEFUL LOAD PREFETCHES:      57004 PREFETCH ISSUED TO LOWER LEVEL:   94567274  ACCURACY: 0.0602788
LLC TIMELY PREFETCHES:      57004 LATE PREFETCHES: 0 DROPPED PREFETCHES: 0
LLC PREFETCHES SAME FILL-ORIGIN LEVEL: 0 DIFFERENT FILL-ORIGIN LEVEL: 0
LLC AVERAGE MISS LATENCY: 2064.31 cycles
LLC RQ	ACCESS:   16681225	FORWARD:          0	MERGED:          0	TO_CACHE:   16681225
LLC WQ	ACCESS:    5205637	FORWARD:          0	MERGED:          0	TO_CACHE:    5205637
LLC PQ	ACCESS:   13708464	FORWARD:          0	MERGED:          0	TO_CACHE:   13708464

LLC Dense regions hint to LLC: 0

RAW hits: 5016884
Loads Generated: 64140558
Loads sent to L1D: 59123673
Stores Generated: 22112138
Stores sent to L1D: 22112139
Major fault: 0 Minor fault: 71638
Allocated PAGES: 286552

CPU 3 cumulative IPC: 0.23205 instructions: 200000003 cycles: 861882278
ITLB TOTAL     ACCESS:   33161912  HIT:   33161910  MISS:          2  HIT %:        100  MISS %: 6.03102e-06   MPKI: 1e-05
ITLB LOAD TRANSLATION ACCESS:   33161912  HIT:   33161910  MISS:          2  HIT %:        100  MISS %: 6.03102e-06   MPKI: 1e-05
ITLB PREFETCH  REQUESTED:          0  ISSUED:          0  USEFUL:          0  USELESS:          0
ITLB USEFUL LOAD PREFETCHES:          0 PREFETCH ISSUED TO LOWER LEVEL:          0  ACCURACY: -nan
ITLB TIMELY PREFETCHES:          0 LATE PREFETCHES: 0 DROPPED PREFETCHES: 0
ITLB PREFETCHES SAME FILL-ORIGIN LEVEL: 0 DIFFERENT FILL-ORIGIN LEVEL: 0
ITLB AVERAGE MISS LATENCY: 738.5 cycles
ITLB RQ	ACCESS:   38193799	FORWARD:          0	MERGED:    4948483	TO_CACHE:   33245316

DTLB TOTAL     ACCESS:   54379494  HIT:   51912053  MISS:    2467441  HIT %:    95.4626  MISS %:    4.53745   MPKI: 12.3372
DTLB LOAD TRANSLATION ACCESS:   54379494  HIT:   51912053  MISS:    2467441  HIT %:    95.4626  MISS %:    4.53745   MPKI: 12.3372
DTLB PREFETCH  REQUESTED:          0  ISSUED:          0  USEFUL:          0  USELESS:          0
DTLB USEFUL LOAD PREFETCHES:          0 PREFETCH ISSUED TO LOWER LEVEL:          0  ACCURACY: -nan
DTLB TIMELY PREFETCHES:          0 LATE PREFETCHES: 0 DROPPED PREFETCHES: 0
DTLB PREFETCHES SAME FILL-ORIGIN LEVEL: 0 DIFFERENT FILL-ORIGIN LEVEL: 0
DTLB AVERAGE MISS LATENCY: 25.7786 cycles
DTLB RQ	ACCESS:   61568045	FORWARD:          0	MERGED:    7026063	TO_CACHE:   54541982

STLB TOTAL     ACCESS:   16517287  HIT:   15611592  MISS:     905695  HIT %:    94.5167  MISS %:    5.48332   MPKI: 4.52847
STLB LOAD TRANSLATION ACCESS:    2467443  HIT:    1584114  MISS:     883329  HIT %:    64.2006  MISS %:    35.7994   MPKI: 4.41664
STLB TRANSLATION FROM L1D PREFETCHER ACCESS:   14049844  HIT:   14027478  MISS:      22366  HIT %:    99.8408  MISS %:    0.15919   MPKI: 0.11183
STLB PREFETCH  REQUESTED:          0  ISSUED:          0  USEFUL:      22334  USELESS:         53
STLB USEFUL LOAD PREFETCHES:      22334 PREFETCH ISSUED TO LOWER LEVEL:          0  ACCURACY: inf
STLB TIMELY PREFETCHES:      22334 LATE PREFETCHES: 6863 DROPPED PREFETCHES: 390113
STLB PREFETCHES SAME FILL-ORIGIN LEVEL: 0 DIFFERENT FILL-ORIGIN LEVEL: 0
STLB AVERAGE MISS LATENCY: 46.3193 cycles
STLB RQ	ACCESS:   63461758	FORWARD:          0	MERGED:   46477433	TO_CACHE:   16984325

STLB Hit, L1D data hit: 0
STLB Hit, L2C data hit: 0
STLB Hit, LLC data hit: 0
STLB Hit, LLC data miss: 0
STLB STLB hints to L2: 0
L1D TOTAL     ACCESS:   94387826  HIT:   87242583  MISS:    7145243  HIT %:    92.4299  MISS %:    7.57009   MPKI: 35.7262
L1D LOAD      ACCESS:   38791397  HIT:   34528802  MISS:    4262595  HIT %:    89.0115  MISS %:    10.9885   MPKI: 21.313
L1D RFO       ACCESS:   12675535  HIT:   11696559  MISS:     978976  HIT %:    92.2766  MISS %:    7.72335   MPKI: 4.89488
L1D PREFETCH  ACCESS:   42920894  HIT:   41017222  MISS:    1903672  HIT %:    95.5647  MISS %:     4.4353   MPKI: 9.51836
L1D PREFETCH  REQUESTED:  138914662  ISSUED:  137674963  USEFUL:    1623587  USELESS:     281665
L1D USEFUL LOAD PREFETCHES:    1623587 PREFETCH ISSUED TO LOWER LEVEL:   14955773  ACCURACY: 10.8559
L1D TIMELY PREFETCHES:    1623587 LATE PREFETCHES: 96927 DROPPED PREFETCHES: 1155715
L1D PREFETCHES SAME FILL-ORIGIN LEVEL: 2002179 DIFFERENT FILL-ORIGIN LEVEL: 12953594
L1D AVERAGE MISS LATENCY: 363.371 cycles
L1D RQ	ACCESS:   59221044	FORWARD:          0	MERGED:   19608274	TO_CACHE:   39597100
L1D WQ	ACCESS:   22112165	FORWARD:      15693	MERGED:     141220	TO_CACHE:   21970945
L1D PQ	ACCESS:   76680674	FORWARD:          0	MERGED:   15686362	TO_CACHE:   60994289

L1D UNIQUE REGIONS ACCESSED: 0
L1D REGIONS CONFLICTS: 0
L1D Cross Page Prefetch Requests: 10505534
L1D Same Page Prefetch Requests: 128513144
L1D ROI Sum of L1D PQ occupancy: 965477609
L1D PREFETCHES PUSHED FROM L2C: 0
L1I TOTAL     ACCESS:   38110391  HIT:   38110350  MISS:         41  HIT %:    99.9999  MISS %: 0.000107582   MPKI: 0.000205
L1I LOAD      ACCESS:   38110391  HIT:   38110350  MISS:         41  HIT %:    99.9999  MISS %: 0.000107582   MPKI: 0.000205
L1I PREFETCH  REQUESTED:          0  ISSUED:          0  USEFUL:          0  USELESS:          0
L1I USEFUL LOAD PREFETCHES:          0 PREFETCH ISSUED TO LOWER LEVEL:          0  ACCURACY: -nan
L1I TIMELY PREFETCHES:          0 LATE PREFETCHES: 0 DROPPED PREFETCHES: 0
L1I PREFETCHES SAME FILL-ORIGIN LEVEL: 0 DIFFERENT FILL-ORIGIN LEVEL: 0
L1I AVERAGE MISS LATENCY: 405.756 cycles
L1I RQ	ACCESS:   55761469	FORWARD:          0	MERGED:   17567670	TO_CACHE:   38193799

BTB TOTAL     ACCESS:   35526907  HIT:   35526741  MISS:        166  HIT %:    99.9995  MISS %: 0.000467251   MPKI: 0.00083
BTB BRANCH_DIRECT_JUMP	ACCESS:    1482252  HIT:    1482223  MISS:         29
BTB BRANCH_INDIRECT	ACCESS:          0  HIT:          0  MISS:          0
BTB BRANCH_CONDITIONAL	ACCESS:   34044599  HIT:   34044502  MISS:         97
BTB BRANCH_DIRECT_CALL	ACCESS:         28  HIT:          8  MISS:         20
BTB BRANCH_INDIRECT_CALL	ACCESS:          0  HIT:          0  MISS:          0
BTB BRANCH_RETURN	ACCESS:         28  HIT:          8  MISS:         20
BTB BRANCH_OTHER ACCESS:          0  HIT:          0  MISS:          0

L2C TOTAL     ACCESS:   19805120  HIT:   12095551  MISS:    7709569  HIT %:    61.0728  MISS %:    38.9272   MPKI: 38.5478
L2C LOAD      ACCESS:    4165708  HIT:     887214  MISS:    3278494  HIT %:     21.298  MISS %:     78.702   MPKI: 16.3925
L2C DATA LOAD MPKI: 16.3923
L2C INSTRUCTION LOAD MPKI: 0.000205
L2C RFO       ACCESS:     978976  HIT:          0  MISS:     978976  HIT %:          0  MISS %:        100   MPKI: 4.89488
L2C PREFETCH  ACCESS:   12058856  HIT:    8917059  MISS:    3141797  HIT %:    73.9461  MISS %:    26.0539   MPKI: 15.709
L2C DATA PREFETCH MPKI: 15.709
L2C INSTRUCTION PREFETCH MPKI: 0
L2C WRITEBACK ACCESS:    1298743  HIT:    1179157  MISS:     119586  HIT %:    90.7922  MISS %:    9.20783   MPKI: 0.59793
L2C LOAD TRANSLATION ACCESS:     883409  HIT:     700611  MISS:     182798  HIT %:    79.3077  MISS %:    20.6923   MPKI: 0.91399
L2C TRANSLATION FROM L1D PREFETCHER ACCESS:     419428  HIT:     411510  MISS:       7918  HIT %:    98.1122  MISS %:    1.88781   MPKI: 0.03959
L2C PREFETCH  REQUESTED:          0  ISSUED:          0  USEFUL:     704479  USELESS:    2444221
L2C USEFUL LOAD PREFETCHES:     704479 PREFETCH ISSUED TO LOWER LEVEL:    3428100  ACCURACY: 20.5501
L2C TIMELY PREFETCHES:     704479 LATE PREFETCHES: 284725 DROPPED PREFETCHES: 0
L2C PREFETCHES SAME FILL-ORIGIN LEVEL: 2328786 DIFFERENT FILL-ORIGIN LEVEL: 0
L2C AVERAGE MISS LATENCY: 481.087 cycles
L2C RQ	ACCESS:    6447551	FORWARD:          0	MERGED:          0	TO_CACHE:    6447550
L2C WQ	ACCESS:    1298747	FORWARD:          1	MERGED:          0	TO_CACHE:    1298747
L2C PQ	ACCESS:   14955751	FORWARD:          0	MERGED:      92168	TO_CACHE:   14863583

L2C Instructions Evicting Data 41
L2C Translations Evicting Data 186342
L2C Data Evicting Data 7215019
L2C Instructions Evicting Instructions 0
L2C Translations Evicting Instructions 0
L2C Data Evicting Instructions 47
L2C Instructions Evicting Translations 0
L2C Translations Evicting Translations 4378
L2C Data Evicting Translations 185742
L2C Dense regions hint from L2: 0
PSCL5 TOTAL     ACCESS:    1302650  HIT:    1302650  MISS:          0  HIT %:        100  MISS %:          0   MPKI: 0
PSCL5 LOAD TRANSLATION ACCESS:     883308  HIT:     883308  MISS:          0  HIT %:        100  MISS %:          0   MPKI: 0
PSCL5 TRANSLATION FROM L1D PREFETCHER ACCESS:     419342  HIT:     419342  MISS:          0  HIT %:        100  MISS %:          0   MPKI: 0
PSCL5 PREFETCH  REQUESTED:          0  ISSUED:          0  USEFUL:          0  USELESS:          0
PSCL5 USEFUL LOAD PREFETCHES:          0 PREFETCH ISSUED TO LOWER LEVEL:          0  ACCURACY: -nan
PSCL5 TIMELY PREFETCHES:          0 LATE PREFETCHES: 0 DROPPED PREFETCHES: 0
PSCL5 PREFETCHES SAME FILL-ORIGIN LEVEL: 0 DIFFERENT FILL-ORIGIN LEVEL: 0

PSCL4 TOTAL     ACCESS:    1302650  HIT:    1302650  MISS:          0  HIT %:        100  MISS %:          0   MPKI: 0
PSCL4 LOAD TRANSLATION ACCESS:     883308  HIT:     883308  MISS:          0  HIT %:        100  MISS %:          0   MPKI: 0
PSCL4 TRANSLATION FROM L1D PREFETCHER ACCESS:     419342  HIT:     419342  MISS:          0  HIT %:        100  MISS %:          0   MPKI: 0
PSCL4 PREFETCH  REQUESTED:          0  ISSUED:          0  USEFUL:          0  USELESS:          0
PSCL4 USEFUL LOAD PREFETCHES:          0 PREFETCH ISSUED TO LOWER LEVEL:          0  ACCURACY: -nan
PSCL4 TIMELY PREFETCHES:          0 LATE PREFETCHES: 0 DROPPED PREFETCHES: 0
PSCL4 PREFETCHES SAME FILL-ORIGIN LEVEL: 0 DIFFERENT FILL-ORIGIN LEVEL: 0

PSCL3 TOTAL     ACCESS:    1302650  HIT:    1302650  MISS:          0  HIT %:        100  MISS %:          0   MPKI: 0
PSCL3 LOAD TRANSLATION ACCESS:     883308  HIT:     883308  MISS:          0  HIT %:        100  MISS %:          0   MPKI: 0
PSCL3 TRANSLATION FROM L1D PREFETCHER ACCESS:     419342  HIT:     419342  MISS:          0  HIT %:        100  MISS %:          0   MPKI: 0
PSCL3 PREFETCH  REQUESTED:          0  ISSUED:          0  USEFUL:          0  USELESS:          0
PSCL3 USEFUL LOAD PREFETCHES:          0 PREFETCH ISSUED TO LOWER LEVEL:          0  ACCURACY: -nan
PSCL3 TIMELY PREFETCHES:          0 LATE PREFETCHES: 0 DROPPED PREFETCHES: 0
PSCL3 PREFETCHES SAME FILL-ORIGIN LEVEL: 0 DIFFERENT FILL-ORIGIN LEVEL: 0

PSCL2 TOTAL     ACCESS:    1301943  HIT:    1301641  MISS:        302  HIT %:    99.9768  MISS %:  0.0231961   MPKI: 0.00151
PSCL2 LOAD TRANSLATION ACCESS:     883353  HIT:     883051  MISS:        302  HIT %:    99.9658  MISS %:  0.0341879   MPKI: 0.00151
PSCL2 TRANSLATION FROM L1D PREFETCHER ACCESS:     418590  HIT:     418590  MISS:          0  HIT %:        100  MISS %:          0   MPKI: 0
PSCL2 PREFETCH  REQUESTED:          0  ISSUED:          0  USEFUL:          0  USELESS:          0
PSCL2 USEFUL LOAD PREFETCHES:          0 PREFETCH ISSUED TO LOWER LEVEL:          0  ACCURACY: -nan
PSCL2 TIMELY PREFETCHES:          0 LATE PREFETCHES: 0 DROPPED PREFETCHES: 0
PSCL2 PREFETCHES SAME FILL-ORIGIN LEVEL: 0 DIFFERENT FILL-ORIGIN LEVEL: 0

LLC TOTAL     ACCESS:    8891327  HIT:    1986421  MISS:    6904906  HIT %:    22.3411  MISS %:    77.6589   MPKI: 34.5245
LLC LOAD      ACCESS:    2993769  HIT:     561710  MISS:    2432059  HIT %:    18.7626  MISS %:    81.2374   MPKI: 12.1603
LLC RFO       ACCESS:     978976  HIT:          0  MISS:     978976  HIT %:          0  MISS %:        100   MPKI: 4.89488
LLC PREFETCH  ACCESS:    3426522  HIT:        709  MISS:    3425813  HIT %:  0.0206915  MISS %:    99.9793   MPKI: 17.1291
LLC WRITEBACK ACCESS:    1301344  HIT:    1250054  MISS:      51290  HIT %:    96.0587  MISS %:    3.94131   MPKI: 0.25645
LLC LOAD TRANSLATION ACCESS:     182798  HIT:     173534  MISS:       9264  HIT %:    94.9321  MISS %:    5.06789   MPKI: 0.04632
LLC TRANSLATION FROM L1D PREFETCHER ACCESS:       7918  HIT:        414  MISS:       7504  HIT %:    5.22859  MISS %:    94.7714   MPKI: 0.03752
LLC PREFETCH  REQUESTED:          0  ISSUED:          0  USEFUL:      57004  USELESS:   13677320
LLC USEFUL LOAD PREFETCHES:      57004 PREFETCH ISSUED TO LOWER LEVEL:   94567274  ACCURACY: 0.0602788
LLC TIMELY PREFETCHES:      57004 LATE PREFETCHES: 0 DROPPED PREFETCHES: 0
LLC PREFETCHES SAME FILL-ORIGIN LEVEL: 0 DIFFERENT FILL-ORIGIN LEVEL: 0
LLC AVERAGE MISS LATENCY: 2064.58 cycles
LLC RQ	ACCESS:   16681225	FORWARD:          0	MERGED:          0	TO_CACHE:   16681225
LLC WQ	ACCESS:    5205637	FORWARD:          0	MERGED:          0	TO_CACHE:    5205637
LLC PQ	ACCESS:   13708464	FORWARD:          0	MERGED:          0	TO_CACHE:   13708464

LLC Dense regions hint to LLC: 0

RAW hits: 5019526
Loads Generated: 64140536
Loads sent to L1D: 59121008
Stores Generated: 22112140
Stores sent to L1D: 22112140
Major fault: 0 Minor fault: 71638
Allocated PAGES: 286552

DRAM Statistics
 CHANNEL 0
 RQ ROW_BUFFER_HIT:    7012817  ROW_BUFFER_MISS:   20407689
 DBUS_CONGESTED:         93
 WQ ROW_BUFFER_HIT:     776279  ROW_BUFFER_MISS:    4450715  FULL:          0

 AVG_CONGESTED_CYCLE: 5
 All warmup complete: 5
Channel 0 Bank busy for read cycles: 0
Channel 0 Bank busy for write cycles: 0
Channel 0
Rank 0
0banks busy for read cycles: 2101736
0banks busy for write cycles: 5369
1banks busy for read cycles: 44251112
1banks busy for write cycles: 1267111
2banks busy for read cycles: 71965573
2banks busy for write cycles: 1281872
3banks busy for read cycles: 102449790
3banks busy for write cycles: 1354203
4banks busy for read cycles: 115776221
4banks busy for write cycles: 1376807
5banks busy for read cycles: 107319413
5banks busy for write cycles: 1425484
6banks busy for read cycles: 85989298
6banks busy for write cycles: 2109022
7banks busy for read cycles: 72296714
7banks busy for write cycles: 15148625
8banks busy for read cycles: 128918136
8banks busy for write cycles: 107263178

CPU 0 Branch Prediction Accuracy: 90.1628% MPKI: 20.9251 Average ROB Occupancy at Mispredict: 21.9706
Branch types
NOT_BRANCH: 157737183 78.7286%
BRANCH_DIRECT_JUMP: 1482252 0.739811%
BRANCH_INDIRECT: 0 0%
BRANCH_CONDITIONAL: 41136118 20.5316%
BRANCH_DIRECT_CALL: 28 1.39752e-05%
BRANCH_INDIRECT_CALL: 0 0%
BRANCH_RETURN: 28 1.39752e-05%
BRANCH_OTHER: 0 0%


CPU 1 Branch Prediction Accuracy: 90.1464% MPKI: 20.9623 Average ROB Occupancy at Mispredict: 21.9408
Branch types
NOT_BRANCH: 157452889 78.7264%
BRANCH_DIRECT_JUMP: 1482252 0.741126%
BRANCH_INDIRECT: 0 0%
BRANCH_CONDITIONAL: 41065073 20.5325%
BRANCH_DIRECT_CALL: 28 1.4e-05%
BRANCH_INDIRECT_CALL: 0 0%
BRANCH_RETURN: 28 1.4e-05%
BRANCH_OTHER: 0 0%


CPU 2 Branch Prediction Accuracy: 90.1531% MPKI: 20.9471 Average ROB Occupancy at Mispredict: 21.9484
Branch types
NOT_BRANCH: 157569162 78.7273%
BRANCH_DIRECT_JUMP: 1482252 0.740587%
BRANCH_INDIRECT: 0 0%
BRANCH_CONDITIONAL: 41094133 20.5321%
BRANCH_DIRECT_CALL: 28 1.39898e-05%
BRANCH_INDIRECT_CALL: 0 0%
BRANCH_RETURN: 28 1.39898e-05%
BRANCH_OTHER: 0 0%


CPU 3 Branch Prediction Accuracy: 90.1694% MPKI: 20.9101 Average ROB Occupancy at Mispredict: 21.9714
Branch types
NOT_BRANCH: 157853087 78.7295%
BRANCH_DIRECT_JUMP: 1482252 0.739276%
BRANCH_INDIRECT: 0 0%
BRANCH_CONDITIONAL: 41165087 20.5312%
BRANCH_DIRECT_CALL: 28 1.39651e-05%
BRANCH_INDIRECT_CALL: 0 0%
BRANCH_RETURN: 28 1.39651e-05%
BRANCH_OTHER: 0 0%

DRAM PAGES: 1048576
Allocated PAGES: 286552
