
*** ChampSim Multicore Out-of-Order Simulator ***

Warmup Instructions: 50000000
Simulation Instructions: 200000000
Number of CPUs: 4
LLC sets: 8192
LLC ways: 16
Off-chip DRAM Size: 4096 MB Channels: 1 Width: 64-bit Data Rate: 6400 MT/s
CPU 0 runs ./traces/ligra/ligra_BC.com-lj.ungraph.gcc_6.3.0_O3.drop_15500M.length_250M.champsimtrace.xz
.xz
CPU 1 runs ./traces/ligra/ligra_BC.com-lj.ungraph.gcc_6.3.0_O3.drop_15500M.length_250M.champsimtrace.xz
.xz
CPU 2 runs ./traces/ligra/ligra_BC.com-lj.ungraph.gcc_6.3.0_O3.drop_15500M.length_250M.champsimtrace.xz
.xz
CPU 3 runs ./traces/ligra/ligra_BC.com-lj.ungraph.gcc_6.3.0_O3.drop_15500M.length_250M.champsimtrace.xz
.xz
BTB has LRU replacement policy
ITLB has LRU replacement policy
DTLB has LRU replacement policy
STLB has LRU replacement policy
L1I has LRU replacement policy
History Sets: 8
History Ways: 16
BERTI Size: 16
BERTI Stride Size: 8
L1D has LRU replacement policy
Initialize SRRIP state for L2C
Initialize DRRIP state for LLC
BTB has LRU replacement policy
ITLB has LRU replacement policy
DTLB has LRU replacement policy
STLB has LRU replacement policy
L1I has LRU replacement policy
History Sets: 8
History Ways: 16
BERTI Size: 16
BERTI Stride Size: 8
L1D has LRU replacement policy
Initialize SRRIP state for L2C
Initialize DRRIP state for LLC
BTB has LRU replacement policy
ITLB has LRU replacement policy
DTLB has LRU replacement policy
STLB has LRU replacement policy
L1I has LRU replacement policy
History Sets: 8
History Ways: 16
BERTI Size: 16
BERTI Stride Size: 8
L1D has LRU replacement policy
Initialize SRRIP state for L2C
Initialize DRRIP state for LLC
BTB has LRU replacement policy
ITLB has LRU replacement policy
DTLB has LRU replacement policy
STLB has LRU replacement policy
L1I has LRU replacement policy
History Sets: 8
History Ways: 16
BERTI Size: 16
BERTI Stride Size: 8
L1D has LRU replacement policy
Initialize SRRIP state for L2C
Initialize DRRIP state for LLC
Heartbeat CPU 0 instructions: 10000003 cycles: 2667057 heartbeat IPC: 3.74945 cumulative IPC: 3.74945 (Simulation time: 0 hr 1 min 32 sec) 
Heartbeat CPU 1 instructions: 10000003 cycles: 2667073 heartbeat IPC: 3.74943 cumulative IPC: 3.74943 (Simulation time: 0 hr 1 min 32 sec) 
Heartbeat CPU 2 instructions: 10000003 cycles: 2667088 heartbeat IPC: 3.74941 cumulative IPC: 3.74941 (Simulation time: 0 hr 1 min 32 sec) 
Heartbeat CPU 3 instructions: 10000003 cycles: 2667093 heartbeat IPC: 3.7494 cumulative IPC: 3.7494 (Simulation time: 0 hr 1 min 32 sec) 
Heartbeat CPU 0 instructions: 20000001 cycles: 5333719 heartbeat IPC: 3.75001 cumulative IPC: 3.74973 (Simulation time: 0 hr 3 min 16 sec) 
Heartbeat CPU 1 instructions: 20000001 cycles: 5333735 heartbeat IPC: 3.75001 cumulative IPC: 3.74972 (Simulation time: 0 hr 3 min 16 sec) 
Heartbeat CPU 2 instructions: 20000001 cycles: 5333749 heartbeat IPC: 3.75001 cumulative IPC: 3.74971 (Simulation time: 0 hr 3 min 16 sec) 
Heartbeat CPU 3 instructions: 20000000 cycles: 5333756 heartbeat IPC: 3.75 cumulative IPC: 3.7497 (Simulation time: 0 hr 3 min 16 sec) 
Heartbeat CPU 0 instructions: 30000003 cycles: 8000386 heartbeat IPC: 3.75 cumulative IPC: 3.74982 (Simulation time: 0 hr 5 min 4 sec) 
Heartbeat CPU 1 instructions: 30000003 cycles: 8000402 heartbeat IPC: 3.75 cumulative IPC: 3.74981 (Simulation time: 0 hr 5 min 4 sec) 
Heartbeat CPU 2 instructions: 30000003 cycles: 8000416 heartbeat IPC: 3.75 cumulative IPC: 3.74981 (Simulation time: 0 hr 5 min 4 sec) 
Heartbeat CPU 3 instructions: 30000003 cycles: 8000421 heartbeat IPC: 3.75 cumulative IPC: 3.7498 (Simulation time: 0 hr 5 min 4 sec) 
Heartbeat CPU 0 instructions: 40000003 cycles: 10667052 heartbeat IPC: 3.75 cumulative IPC: 3.74986 (Simulation time: 0 hr 6 min 43 sec) 
Heartbeat CPU 1 instructions: 40000003 cycles: 10667068 heartbeat IPC: 3.75 cumulative IPC: 3.74986 (Simulation time: 0 hr 6 min 43 sec) 
Heartbeat CPU 2 instructions: 40000003 cycles: 10667082 heartbeat IPC: 3.75 cumulative IPC: 3.74985 (Simulation time: 0 hr 6 min 43 sec) 
Heartbeat CPU 3 instructions: 40000003 cycles: 10667087 heartbeat IPC: 3.75 cumulative IPC: 3.74985 (Simulation time: 0 hr 6 min 43 sec) 
Heartbeat CPU 0 instructions: 50000001 cycles: 13333718 heartbeat IPC: 3.75 cumulative IPC: 3.74989 (Simulation time: 0 hr 8 min 35 sec) 
Heartbeat CPU 1 instructions: 50000001 cycles: 13333734 heartbeat IPC: 3.75 cumulative IPC: 3.74989 (Simulation time: 0 hr 8 min 35 sec) 
Heartbeat CPU 2 instructions: 50000001 cycles: 13333748 heartbeat IPC: 3.75 cumulative IPC: 3.74988 (Simulation time: 0 hr 8 min 35 sec) 
Heartbeat CPU 3 instructions: 50000001 cycles: 13333753 heartbeat IPC: 3.75 cumulative IPC: 3.74988 (Simulation time: 0 hr 8 min 35 sec) 

Warmup complete CPU 0 instructions: 50000121 cycles: 13333753 (Simulation time: 0 hr 8 min 35 sec) 
Warmup complete CPU 1 instructions: 50000057 cycles: 13333753 (Simulation time: 0 hr 8 min 35 sec) 
Warmup complete CPU 2 instructions: 50000016 cycles: 13333753 (Simulation time: 0 hr 8 min 35 sec) 
Warmup complete CPU 3 instructions: 50000001 cycles: 13333753 (Simulation time: 0 hr 8 min 35 sec) 

Heartbeat CPU 2 instructions: 60000002 cycles: 51536658 heartbeat IPC: 0.26176 cumulative IPC: 0.26176 (Simulation time: 0 hr 22 min 44 sec) 
Heartbeat CPU 1 instructions: 60000002 cycles: 51693378 heartbeat IPC: 0.260691 cumulative IPC: 0.260689 (Simulation time: 0 hr 22 min 47 sec) 
Heartbeat CPU 3 instructions: 60000002 cycles: 51736973 heartbeat IPC: 0.260395 cumulative IPC: 0.260395 (Simulation time: 0 hr 22 min 48 sec) 
Heartbeat CPU 0 instructions: 60000002 cycles: 51753419 heartbeat IPC: 0.260283 cumulative IPC: 0.26028 (Simulation time: 0 hr 22 min 49 sec) 
Heartbeat CPU 2 instructions: 70000001 cycles: 99259593 heartbeat IPC: 0.209543 cumulative IPC: 0.232759 (Simulation time: 0 hr 36 min 36 sec) 
Heartbeat CPU 1 instructions: 70000003 cycles: 99444188 heartbeat IPC: 0.209421 cumulative IPC: 0.232259 (Simulation time: 0 hr 36 min 37 sec) 
Heartbeat CPU 3 instructions: 70000001 cycles: 99527755 heartbeat IPC: 0.209245 cumulative IPC: 0.232035 (Simulation time: 0 hr 36 min 38 sec) 
Heartbeat CPU 0 instructions: 70000001 cycles: 99623946 heartbeat IPC: 0.208897 cumulative IPC: 0.231775 (Simulation time: 0 hr 36 min 39 sec) 
Heartbeat CPU 2 instructions: 80000001 cycles: 123453804 heartbeat IPC: 0.413322 cumulative IPC: 0.27243 (Simulation time: 0 hr 40 min 45 sec) 
Heartbeat CPU 1 instructions: 80000001 cycles: 123785643 heartbeat IPC: 0.410822 cumulative IPC: 0.271611 (Simulation time: 0 hr 40 min 48 sec) 
Heartbeat CPU 3 instructions: 80000001 cycles: 124041262 heartbeat IPC: 0.407938 cumulative IPC: 0.270984 (Simulation time: 0 hr 40 min 51 sec) 
Heartbeat CPU 0 instructions: 80000001 cycles: 124247157 heartbeat IPC: 0.406121 cumulative IPC: 0.27048 (Simulation time: 0 hr 40 min 53 sec) 
Heartbeat CPU 2 instructions: 90000001 cycles: 147827223 heartbeat IPC: 0.410283 cumulative IPC: 0.297412 (Simulation time: 0 hr 44 min 42 sec) 
Heartbeat CPU 1 instructions: 90000001 cycles: 148335010 heartbeat IPC: 0.407342 cumulative IPC: 0.296293 (Simulation time: 0 hr 44 min 48 sec) 
Heartbeat CPU 3 instructions: 90000001 cycles: 148542390 heartbeat IPC: 0.408144 cumulative IPC: 0.295839 (Simulation time: 0 hr 44 min 50 sec) 
Heartbeat CPU 0 instructions: 90000001 cycles: 148933987 heartbeat IPC: 0.405074 cumulative IPC: 0.294984 (Simulation time: 0 hr 44 min 54 sec) 
Heartbeat CPU 2 instructions: 100000001 cycles: 172114951 heartbeat IPC: 0.411731 cumulative IPC: 0.314899 (Simulation time: 0 hr 48 min 43 sec) 
Heartbeat CPU 1 instructions: 100000001 cycles: 172623750 heartbeat IPC: 0.411713 cumulative IPC: 0.313893 (Simulation time: 0 hr 48 min 48 sec) 
Heartbeat CPU 3 instructions: 100000001 cycles: 173035555 heartbeat IPC: 0.408277 cumulative IPC: 0.313083 (Simulation time: 0 hr 48 min 51 sec) 
Heartbeat CPU 0 instructions: 100000001 cycles: 173350708 heartbeat IPC: 0.409555 cumulative IPC: 0.312466 (Simulation time: 0 hr 48 min 54 sec) 
Heartbeat CPU 2 instructions: 110000000 cycles: 196349922 heartbeat IPC: 0.412627 cumulative IPC: 0.32784 (Simulation time: 0 hr 52 min 57 sec) 
Heartbeat CPU 1 instructions: 110000000 cycles: 196502488 heartbeat IPC: 0.418783 cumulative IPC: 0.327567 (Simulation time: 0 hr 52 min 59 sec) 
Heartbeat CPU 3 instructions: 110000000 cycles: 197669313 heartbeat IPC: 0.405947 cumulative IPC: 0.325493 (Simulation time: 0 hr 53 min 12 sec) 
Heartbeat CPU 0 instructions: 110000000 cycles: 197725427 heartbeat IPC: 0.410261 cumulative IPC: 0.325394 (Simulation time: 0 hr 53 min 13 sec) 
Heartbeat CPU 2 instructions: 120000001 cycles: 220853992 heartbeat IPC: 0.408096 cumulative IPC: 0.337316 (Simulation time: 0 hr 57 min 22 sec) 
Heartbeat CPU 1 instructions: 120000001 cycles: 220898968 heartbeat IPC: 0.409895 cumulative IPC: 0.337243 (Simulation time: 0 hr 57 min 23 sec) 
Heartbeat CPU 0 instructions: 120000001 cycles: 222176787 heartbeat IPC: 0.408975 cumulative IPC: 0.335179 (Simulation time: 0 hr 57 min 38 sec) 
Heartbeat CPU 3 instructions: 120000001 cycles: 222182394 heartbeat IPC: 0.407945 cumulative IPC: 0.335171 (Simulation time: 0 hr 57 min 38 sec) 
Heartbeat CPU 1 instructions: 130000003 cycles: 245470717 heartbeat IPC: 0.406972 cumulative IPC: 0.344624 (Simulation time: 1 hr 1 min 18 sec) 
Heartbeat CPU 2 instructions: 130000003 cycles: 245473509 heartbeat IPC: 0.406182 cumulative IPC: 0.34462 (Simulation time: 1 hr 1 min 18 sec) 
Heartbeat CPU 3 instructions: 130000003 cycles: 246608272 heartbeat IPC: 0.409402 cumulative IPC: 0.342944 (Simulation time: 1 hr 1 min 28 sec) 
Heartbeat CPU 0 instructions: 130000003 cycles: 246793696 heartbeat IPC: 0.406225 cumulative IPC: 0.342671 (Simulation time: 1 hr 1 min 30 sec) 
Heartbeat CPU 1 instructions: 140000003 cycles: 270319250 heartbeat IPC: 0.402438 cumulative IPC: 0.350214 (Simulation time: 1 hr 5 min 22 sec) 
Heartbeat CPU 2 instructions: 140000003 cycles: 270416504 heartbeat IPC: 0.400914 cumulative IPC: 0.350082 (Simulation time: 1 hr 5 min 23 sec) 
Heartbeat CPU 0 instructions: 140000003 cycles: 271371667 heartbeat IPC: 0.406868 cumulative IPC: 0.348785 (Simulation time: 1 hr 5 min 32 sec) 
Heartbeat CPU 3 instructions: 140000003 cycles: 271384355 heartbeat IPC: 0.403615 cumulative IPC: 0.348769 (Simulation time: 1 hr 5 min 32 sec) 
Heartbeat CPU 1 instructions: 150000001 cycles: 295646552 heartbeat IPC: 0.394831 cumulative IPC: 0.354217 (Simulation time: 1 hr 9 min 43 sec) 
Heartbeat CPU 2 instructions: 150000001 cycles: 296020827 heartbeat IPC: 0.390559 cumulative IPC: 0.353748 (Simulation time: 1 hr 9 min 46 sec) 
Heartbeat CPU 0 instructions: 150000001 cycles: 296804446 heartbeat IPC: 0.393193 cumulative IPC: 0.35277 (Simulation time: 1 hr 9 min 54 sec) 
Heartbeat CPU 3 instructions: 150000001 cycles: 296893596 heartbeat IPC: 0.392015 cumulative IPC: 0.352659 (Simulation time: 1 hr 9 min 55 sec) 
Heartbeat CPU 1 instructions: 160000001 cycles: 320119355 heartbeat IPC: 0.408617 cumulative IPC: 0.358556 (Simulation time: 1 hr 13 min 39 sec) 
Heartbeat CPU 2 instructions: 160000001 cycles: 320721766 heartbeat IPC: 0.404843 cumulative IPC: 0.357854 (Simulation time: 1 hr 13 min 44 sec) 
Heartbeat CPU 0 instructions: 160000001 cycles: 321163566 heartbeat IPC: 0.410524 cumulative IPC: 0.35734 (Simulation time: 1 hr 13 min 48 sec) 
Heartbeat CPU 3 instructions: 160000001 cycles: 321213882 heartbeat IPC: 0.411179 cumulative IPC: 0.357282 (Simulation time: 1 hr 13 min 49 sec) 
Heartbeat CPU 1 instructions: 170000000 cycles: 345324575 heartbeat IPC: 0.396743 cumulative IPC: 0.361456 (Simulation time: 1 hr 17 min 51 sec) 
Heartbeat CPU 0 instructions: 170000000 cycles: 345991575 heartbeat IPC: 0.402771 cumulative IPC: 0.360731 (Simulation time: 1 hr 17 min 57 sec) 
Heartbeat CPU 3 instructions: 170000000 cycles: 346091868 heartbeat IPC: 0.401962 cumulative IPC: 0.360622 (Simulation time: 1 hr 17 min 58 sec) 
Heartbeat CPU 2 instructions: 170000000 cycles: 346127558 heartbeat IPC: 0.393611 cumulative IPC: 0.360584 (Simulation time: 1 hr 17 min 59 sec) 
Heartbeat CPU 1 instructions: 180000001 cycles: 369740771 heartbeat IPC: 0.409564 cumulative IPC: 0.364751 (Simulation time: 1 hr 22 min 5 sec) 
Heartbeat CPU 3 instructions: 180000001 cycles: 370683449 heartbeat IPC: 0.406643 cumulative IPC: 0.363789 (Simulation time: 1 hr 22 min 14 sec) 
Heartbeat CPU 0 instructions: 180000001 cycles: 370803616 heartbeat IPC: 0.40303 cumulative IPC: 0.363667 (Simulation time: 1 hr 22 min 15 sec) 
Heartbeat CPU 2 instructions: 180000001 cycles: 370854493 heartbeat IPC: 0.404417 cumulative IPC: 0.363615 (Simulation time: 1 hr 22 min 15 sec) 
Heartbeat CPU 1 instructions: 190000001 cycles: 394844811 heartbeat IPC: 0.398342 cumulative IPC: 0.366962 (Simulation time: 1 hr 26 min 20 sec) 
Heartbeat CPU 3 instructions: 190000001 cycles: 395268743 heartbeat IPC: 0.406747 cumulative IPC: 0.366555 (Simulation time: 1 hr 26 min 25 sec) 
Heartbeat CPU 0 instructions: 190000001 cycles: 395600097 heartbeat IPC: 0.403283 cumulative IPC: 0.366236 (Simulation time: 1 hr 26 min 29 sec) 
Heartbeat CPU 2 instructions: 190000001 cycles: 395839863 heartbeat IPC: 0.400234 cumulative IPC: 0.366007 (Simulation time: 1 hr 26 min 31 sec) 
Heartbeat CPU 1 instructions: 200000002 cycles: 419717350 heartbeat IPC: 0.40205 cumulative IPC: 0.369109 (Simulation time: 1 hr 30 min 30 sec) 
Heartbeat CPU 3 instructions: 200000001 cycles: 420329755 heartbeat IPC: 0.399026 cumulative IPC: 0.368554 (Simulation time: 1 hr 30 min 36 sec) 
Heartbeat CPU 2 instructions: 200000001 cycles: 420597801 heartbeat IPC: 0.403911 cumulative IPC: 0.368311 (Simulation time: 1 hr 30 min 39 sec) 
Heartbeat CPU 0 instructions: 200000001 cycles: 420682390 heartbeat IPC: 0.398688 cumulative IPC: 0.368235 (Simulation time: 1 hr 30 min 40 sec) 
Heartbeat CPU 1 instructions: 210000001 cycles: 444472500 heartbeat IPC: 0.403956 cumulative IPC: 0.37111 (Simulation time: 1 hr 34 min 34 sec) 
Heartbeat CPU 3 instructions: 210000001 cycles: 445263581 heartbeat IPC: 0.401062 cumulative IPC: 0.370431 (Simulation time: 1 hr 34 min 41 sec) 
Heartbeat CPU 2 instructions: 210000001 cycles: 445298740 heartbeat IPC: 0.404843 cumulative IPC: 0.3704 (Simulation time: 1 hr 34 min 42 sec) 
Heartbeat CPU 0 instructions: 210000001 cycles: 445682334 heartbeat IPC: 0.400001 cumulative IPC: 0.370071 (Simulation time: 1 hr 34 min 45 sec) 
Heartbeat CPU 1 instructions: 220000000 cycles: 469121024 heartbeat IPC: 0.405704 cumulative IPC: 0.372981 (Simulation time: 1 hr 38 min 14 sec) 
Heartbeat CPU 2 instructions: 220000000 cycles: 469928434 heartbeat IPC: 0.406014 cumulative IPC: 0.372321 (Simulation time: 1 hr 38 min 20 sec) 
Heartbeat CPU 3 instructions: 220000000 cycles: 470383872 heartbeat IPC: 0.398085 cumulative IPC: 0.37195 (Simulation time: 1 hr 38 min 24 sec) 
Heartbeat CPU 0 instructions: 220000000 cycles: 470805226 heartbeat IPC: 0.398043 cumulative IPC: 0.371608 (Simulation time: 1 hr 38 min 28 sec) 
Heartbeat CPU 1 instructions: 230000002 cycles: 494079887 heartbeat IPC: 0.400659 cumulative IPC: 0.374418 (Simulation time: 1 hr 41 min 57 sec) 
Heartbeat CPU 2 instructions: 230000002 cycles: 494994390 heartbeat IPC: 0.398948 cumulative IPC: 0.373707 (Simulation time: 1 hr 42 min 4 sec) 
Heartbeat CPU 3 instructions: 230000002 cycles: 495296152 heartbeat IPC: 0.401409 cumulative IPC: 0.373473 (Simulation time: 1 hr 42 min 7 sec) 
Heartbeat CPU 0 instructions: 230000002 cycles: 495821064 heartbeat IPC: 0.399747 cumulative IPC: 0.373067 (Simulation time: 1 hr 42 min 11 sec) 
Heartbeat CPU 1 instructions: 240000000 cycles: 519576762 heartbeat IPC: 0.392205 cumulative IPC: 0.375314 (Simulation time: 1 hr 45 min 57 sec) 
Heartbeat CPU 2 instructions: 240000000 cycles: 519995073 heartbeat IPC: 0.399989 cumulative IPC: 0.375004 (Simulation time: 1 hr 46 min 1 sec) 
Heartbeat CPU 3 instructions: 240000000 cycles: 520463731 heartbeat IPC: 0.397337 cumulative IPC: 0.374657 (Simulation time: 1 hr 46 min 5 sec) 
Heartbeat CPU 0 instructions: 240000000 cycles: 521041216 heartbeat IPC: 0.396508 cumulative IPC: 0.374231 (Simulation time: 1 hr 46 min 10 sec) 
*** Reached end of trace for Core: 1 Repeating trace: ./traces/ligra/ligra_BC.com-lj.ungraph.gcc_6.3.0_O3.drop_15500M.length_250M.champsimtrace.xz
Heartbeat CPU 1 instructions: 250000002 cycles: 544681987 heartbeat IPC: 0.398324 cumulative IPC: 0.376401 (Simulation time: 1 hr 49 min 56 sec) 
Finished CPU 1 instructions: 200000002 cycles: 531356054 cumulative IPC: 0.376395 (Simulation time: 1 hr 49 min 57 sec) 
*** Reached end of trace for Core: 2 Repeating trace: ./traces/ligra/ligra_BC.com-lj.ungraph.gcc_6.3.0_O3.drop_15500M.length_250M.champsimtrace.xz
Heartbeat CPU 2 instructions: 250000002 cycles: 545506638 heartbeat IPC: 0.391979 cumulative IPC: 0.375818 (Simulation time: 1 hr 50 min 7 sec) 
Finished CPU 2 instructions: 200000002 cycles: 532179084 cumulative IPC: 0.375813 (Simulation time: 1 hr 50 min 7 sec) 
*** Reached end of trace for Core: 3 Repeating trace: ./traces/ligra/ligra_BC.com-lj.ungraph.gcc_6.3.0_O3.drop_15500M.length_250M.champsimtrace.xz
Heartbeat CPU 3 instructions: 250000002 cycles: 545654863 heartbeat IPC: 0.396965 cumulative IPC: 0.375713 (Simulation time: 1 hr 50 min 9 sec) 
Finished CPU 3 instructions: 200000001 cycles: 532321110 cumulative IPC: 0.375713 (Simulation time: 1 hr 50 min 9 sec) 
*** Reached end of trace for Core: 0 Repeating trace: ./traces/ligra/ligra_BC.com-lj.ungraph.gcc_6.3.0_O3.drop_15500M.length_250M.champsimtrace.xz
Heartbeat CPU 0 instructions: 250000002 cycles: 547466356 heartbeat IPC: 0.378428 cumulative IPC: 0.374439 (Simulation time: 1 hr 50 min 37 sec) 
Finished CPU 0 instructions: 200000002 cycles: 534148237 cumulative IPC: 0.374428 (Simulation time: 1 hr 50 min 38 sec) 

ChampSim completed all CPUs

Total Simulation Statistics (not including warmup)

CPU 0 cumulative IPC: 0.374428 instructions: 200000002 cycles: 534148237
ITLB TOTAL     ACCESS:   25219464  HIT:   25219464  MISS:          0  HIT %:        100  MISS %:          0   MPKI: 0
ITLB LOAD      ACCESS:          0  HIT:          0  MISS:          0  HIT %:       -nan  MISS %:       -nan   MPKI: 0
ITLB RFO       ACCESS:          0  HIT:          0  MISS:          0  HIT %:       -nan  MISS %:       -nan   MPKI: 0
ITLB PREFETCH  ACCESS:          0  HIT:          0  MISS:          0  HIT %:       -nan  MISS %:       -nan   MPKI: 0
ITLB WRITEBACK ACCESS:          0  HIT:          0  MISS:          0  HIT %:       -nan  MISS %:       -nan   MPKI: 0
DTLB TOTAL     ACCESS:   29476800  HIT:   29406262  MISS:      70538  HIT %:    99.7607  MISS %:     0.2393   MPKI: 0.35269
DTLB LOAD      ACCESS:          0  HIT:          0  MISS:          0  HIT %:       -nan  MISS %:       -nan   MPKI: 0
DTLB RFO       ACCESS:          0  HIT:          0  MISS:          0  HIT %:       -nan  MISS %:       -nan   MPKI: 0
DTLB PREFETCH  ACCESS:          0  HIT:          0  MISS:          0  HIT %:       -nan  MISS %:       -nan   MPKI: 0
DTLB WRITEBACK ACCESS:          0  HIT:          0  MISS:          0  HIT %:       -nan  MISS %:       -nan   MPKI: 0
STLB TOTAL     ACCESS:    5283972  HIT:    5213434  MISS:      70538  HIT %:    98.6651  MISS %:    1.33494   MPKI: 0.35269
STLB LOAD      ACCESS:          0  HIT:          0  MISS:          0  HIT %:       -nan  MISS %:       -nan   MPKI: 0
STLB RFO       ACCESS:          0  HIT:          0  MISS:          0  HIT %:       -nan  MISS %:       -nan   MPKI: 0
STLB PREFETCH  ACCESS:          0  HIT:          0  MISS:          0  HIT %:       -nan  MISS %:       -nan   MPKI: 0
STLB WRITEBACK ACCESS:          0  HIT:          0  MISS:          0  HIT %:       -nan  MISS %:       -nan   MPKI: 0
L1D TOTAL     ACCESS:   14320680  HIT:    9807594  MISS:    4513086  HIT %:    68.4855  MISS %:    31.5145   MPKI: 22.5654
L1D LOAD      ACCESS:    6791116  HIT:    5536503  MISS:    1254613  HIT %:    81.5257  MISS %:    18.4743   MPKI: 6.27306
L1D RFO       ACCESS:    3707434  HIT:     721805  MISS:    2985629  HIT %:    19.4691  MISS %:    80.5309   MPKI: 14.9281
L1D PREFETCH  ACCESS:    3822130  HIT:    3549286  MISS:     272844  HIT %:    92.8615  MISS %:    7.13853   MPKI: 1.36422
L1D WRITEBACK ACCESS:          0  HIT:          0  MISS:          0  HIT %:       -nan  MISS %:       -nan   MPKI: 0
L1I TOTAL     ACCESS:   44469513  HIT:   44469504  MISS:          9  HIT %:        100  MISS %: 2.02386e-05   MPKI: 4.5e-05
L1I LOAD      ACCESS:   44469513  HIT:   44469504  MISS:          9  HIT %:        100  MISS %: 2.02386e-05   MPKI: 4.5e-05
L1I RFO       ACCESS:          0  HIT:          0  MISS:          0  HIT %:       -nan  MISS %:       -nan   MPKI: 0
L1I PREFETCH  ACCESS:          0  HIT:          0  MISS:          0  HIT %:       -nan  MISS %:       -nan   MPKI: 0
L1I WRITEBACK ACCESS:          0  HIT:          0  MISS:          0  HIT %:       -nan  MISS %:       -nan   MPKI: 0
L2C TOTAL     ACCESS:   10077668  HIT:    5243939  MISS:    4833729  HIT %:    52.0352  MISS %:    47.9648   MPKI: 24.1686
L2C LOAD      ACCESS:    1236550  HIT:     762704  MISS:     473846  HIT %:      61.68  MISS %:      38.32   MPKI: 2.36923
L2C RFO       ACCESS:    2985629  HIT:          0  MISS:    2985629  HIT %:          0  MISS %:        100   MPKI: 14.9281
L2C PREFETCH  ACCESS:    2633443  HIT:    1579933  MISS:    1053510  HIT %:     59.995  MISS %:     40.005   MPKI: 5.26755
L2C WRITEBACK ACCESS:    2985841  HIT:    2674548  MISS:     311293  HIT %:    89.5744  MISS %:    10.4256   MPKI: 1.55646
PSCL5 TOTAL     ACCESS:     236182  HIT:     236182  MISS:          0  HIT %:        100  MISS %:          0   MPKI: 0
PSCL5 LOAD      ACCESS:          0  HIT:          0  MISS:          0  HIT %:       -nan  MISS %:       -nan   MPKI: 0
PSCL5 RFO       ACCESS:          0  HIT:          0  MISS:          0  HIT %:       -nan  MISS %:       -nan   MPKI: 0
PSCL5 PREFETCH  ACCESS:          0  HIT:          0  MISS:          0  HIT %:       -nan  MISS %:       -nan   MPKI: 0
PSCL5 WRITEBACK ACCESS:          0  HIT:          0  MISS:          0  HIT %:       -nan  MISS %:       -nan   MPKI: 0
PSCL4 TOTAL     ACCESS:     236182  HIT:     236182  MISS:          0  HIT %:        100  MISS %:          0   MPKI: 0
PSCL4 LOAD      ACCESS:          0  HIT:          0  MISS:          0  HIT %:       -nan  MISS %:       -nan   MPKI: 0
PSCL4 RFO       ACCESS:          0  HIT:          0  MISS:          0  HIT %:       -nan  MISS %:       -nan   MPKI: 0
PSCL4 PREFETCH  ACCESS:          0  HIT:          0  MISS:          0  HIT %:       -nan  MISS %:       -nan   MPKI: 0
PSCL4 WRITEBACK ACCESS:          0  HIT:          0  MISS:          0  HIT %:       -nan  MISS %:       -nan   MPKI: 0
PSCL3 TOTAL     ACCESS:     236182  HIT:     236182  MISS:          0  HIT %:        100  MISS %:          0   MPKI: 0
PSCL3 LOAD      ACCESS:          0  HIT:          0  MISS:          0  HIT %:       -nan  MISS %:       -nan   MPKI: 0
PSCL3 RFO       ACCESS:          0  HIT:          0  MISS:          0  HIT %:       -nan  MISS %:       -nan   MPKI: 0
PSCL3 PREFETCH  ACCESS:          0  HIT:          0  MISS:          0  HIT %:       -nan  MISS %:       -nan   MPKI: 0
PSCL3 WRITEBACK ACCESS:          0  HIT:          0  MISS:          0  HIT %:       -nan  MISS %:       -nan   MPKI: 0
PSCL2 TOTAL     ACCESS:     236064  HIT:     235911  MISS:        153  HIT %:    99.9352  MISS %:  0.0648129   MPKI: 0.000765
PSCL2 LOAD      ACCESS:          0  HIT:          0  MISS:          0  HIT %:       -nan  MISS %:       -nan   MPKI: 0
PSCL2 RFO       ACCESS:          0  HIT:          0  MISS:          0  HIT %:       -nan  MISS %:       -nan   MPKI: 0
PSCL2 PREFETCH  ACCESS:          0  HIT:          0  MISS:          0  HIT %:       -nan  MISS %:       -nan   MPKI: 0
PSCL2 WRITEBACK ACCESS:          0  HIT:          0  MISS:          0  HIT %:       -nan  MISS %:       -nan   MPKI: 0
LLC TOTAL     ACCESS:    7510488  HIT:    2894486  MISS:    4616002  HIT %:    38.5393  MISS %:    61.4607   MPKI: 23.08
LLC LOAD      ACCESS:     115969  HIT:         17  MISS:     115952  HIT %:  0.0146591  MISS %:    99.9853   MPKI: 0.57976
LLC RFO       ACCESS:    2985629  HIT:          0  MISS:    2985629  HIT %:          0  MISS %:        100   MPKI: 14.9281
LLC PREFETCH  ACCESS:    1411387  HIT:        161  MISS:    1411226  HIT %:  0.0114072  MISS %:    99.9886   MPKI: 7.05613
LLC WRITEBACK ACCESS:    2988052  HIT:    2893836  MISS:      94216  HIT %:    96.8469  MISS %:    3.15309   MPKI: 0.47108

RAW hits: 21
Loads Generated: 22813188
Loads sent to L1D: 22813167
Stores Generated: 41926569
Stores sent to L1D: 41926573

CPU 1 cumulative IPC: 0.376384 instructions: 201044655 cycles: 534148237
ITLB TOTAL     ACCESS:   25430666  HIT:   25430666  MISS:          0  HIT %:        100  MISS %:          0   MPKI: 0
ITLB LOAD      ACCESS:          0  HIT:          0  MISS:          0  HIT %:       -nan  MISS %:       -nan   MPKI: 0
ITLB RFO       ACCESS:          0  HIT:          0  MISS:          0  HIT %:       -nan  MISS %:       -nan   MPKI: 0
ITLB PREFETCH  ACCESS:          0  HIT:          0  MISS:          0  HIT %:       -nan  MISS %:       -nan   MPKI: 0
ITLB WRITEBACK ACCESS:          0  HIT:          0  MISS:          0  HIT %:       -nan  MISS %:       -nan   MPKI: 0
DTLB TOTAL     ACCESS:   29579996  HIT:   29508976  MISS:      71020  HIT %:    99.7599  MISS %:   0.240095   MPKI: 0.353255
DTLB LOAD      ACCESS:          0  HIT:          0  MISS:          0  HIT %:       -nan  MISS %:       -nan   MPKI: 0
DTLB RFO       ACCESS:          0  HIT:          0  MISS:          0  HIT %:       -nan  MISS %:       -nan   MPKI: 0
DTLB PREFETCH  ACCESS:          0  HIT:          0  MISS:          0  HIT %:       -nan  MISS %:       -nan   MPKI: 0
DTLB WRITEBACK ACCESS:          0  HIT:          0  MISS:          0  HIT %:       -nan  MISS %:       -nan   MPKI: 0
STLB TOTAL     ACCESS:    5300317  HIT:    5229296  MISS:      71021  HIT %:    98.6601  MISS %:    1.33994   MPKI: 0.35326
STLB LOAD      ACCESS:          0  HIT:          0  MISS:          0  HIT %:       -nan  MISS %:       -nan   MPKI: 0
STLB RFO       ACCESS:          0  HIT:          0  MISS:          0  HIT %:       -nan  MISS %:       -nan   MPKI: 0
STLB PREFETCH  ACCESS:          0  HIT:          0  MISS:          0  HIT %:       -nan  MISS %:       -nan   MPKI: 0
STLB WRITEBACK ACCESS:          0  HIT:          0  MISS:          0  HIT %:       -nan  MISS %:       -nan   MPKI: 0
L1D TOTAL     ACCESS:   14360735  HIT:    9817332  MISS:    4543403  HIT %:    68.3623  MISS %:    31.6377   MPKI: 22.599
L1D LOAD      ACCESS:    6825654  HIT:    5565667  MISS:    1259987  HIT %:    81.5404  MISS %:    18.4596   MPKI: 6.2672
L1D RFO       ACCESS:    3732060  HIT:     720617  MISS:    3011443  HIT %:    19.3088  MISS %:    80.6912   MPKI: 14.979
L1D PREFETCH  ACCESS:    3803021  HIT:    3531048  MISS:     271973  HIT %:    92.8485  MISS %:     7.1515   MPKI: 1.3528
L1D WRITEBACK ACCESS:          0  HIT:          0  MISS:          0  HIT %:       -nan  MISS %:       -nan   MPKI: 0
L1I TOTAL     ACCESS:   44681082  HIT:   44681073  MISS:          9  HIT %:        100  MISS %: 2.01428e-05   MPKI: 4.47662e-05
L1I LOAD      ACCESS:   44681082  HIT:   44681073  MISS:          9  HIT %:        100  MISS %: 2.01428e-05   MPKI: 4.47662e-05
L1I RFO       ACCESS:          0  HIT:          0  MISS:          0  HIT %:       -nan  MISS %:       -nan   MPKI: 0
L1I PREFETCH  ACCESS:          0  HIT:          0  MISS:          0  HIT %:       -nan  MISS %:       -nan   MPKI: 0
L1I WRITEBACK ACCESS:          0  HIT:          0  MISS:          0  HIT %:       -nan  MISS %:       -nan   MPKI: 0
L2C TOTAL     ACCESS:   10170601  HIT:    5301200  MISS:    4869401  HIT %:    52.1228  MISS %:    47.8772   MPKI: 24.2205
L2C LOAD      ACCESS:    1241829  HIT:     768481  MISS:     473348  HIT %:     61.883  MISS %:     38.117   MPKI: 2.35444
L2C RFO       ACCESS:    3011443  HIT:          0  MISS:    3011443  HIT %:          0  MISS %:        100   MPKI: 14.979
L2C PREFETCH  ACCESS:    2669680  HIT:    1611334  MISS:    1058346  HIT %:    60.3568  MISS %:    39.6432   MPKI: 5.26423
L2C WRITEBACK ACCESS:    3011445  HIT:    2694686  MISS:     316759  HIT %:    89.4815  MISS %:    10.5185   MPKI: 1.57557
PSCL5 TOTAL     ACCESS:     236174  HIT:     236174  MISS:          0  HIT %:        100  MISS %:          0   MPKI: 0
PSCL5 LOAD      ACCESS:          0  HIT:          0  MISS:          0  HIT %:       -nan  MISS %:       -nan   MPKI: 0
PSCL5 RFO       ACCESS:          0  HIT:          0  MISS:          0  HIT %:       -nan  MISS %:       -nan   MPKI: 0
PSCL5 PREFETCH  ACCESS:          0  HIT:          0  MISS:          0  HIT %:       -nan  MISS %:       -nan   MPKI: 0
PSCL5 WRITEBACK ACCESS:          0  HIT:          0  MISS:          0  HIT %:       -nan  MISS %:       -nan   MPKI: 0
PSCL4 TOTAL     ACCESS:     236174  HIT:     236174  MISS:          0  HIT %:        100  MISS %:          0   MPKI: 0
PSCL4 LOAD      ACCESS:          0  HIT:          0  MISS:          0  HIT %:       -nan  MISS %:       -nan   MPKI: 0
PSCL4 RFO       ACCESS:          0  HIT:          0  MISS:          0  HIT %:       -nan  MISS %:       -nan   MPKI: 0
PSCL4 PREFETCH  ACCESS:          0  HIT:          0  MISS:          0  HIT %:       -nan  MISS %:       -nan   MPKI: 0
PSCL4 WRITEBACK ACCESS:          0  HIT:          0  MISS:          0  HIT %:       -nan  MISS %:       -nan   MPKI: 0
PSCL3 TOTAL     ACCESS:     236174  HIT:     236174  MISS:          0  HIT %:        100  MISS %:          0   MPKI: 0
PSCL3 LOAD      ACCESS:          0  HIT:          0  MISS:          0  HIT %:       -nan  MISS %:       -nan   MPKI: 0
PSCL3 RFO       ACCESS:          0  HIT:          0  MISS:          0  HIT %:       -nan  MISS %:       -nan   MPKI: 0
PSCL3 PREFETCH  ACCESS:          0  HIT:          0  MISS:          0  HIT %:       -nan  MISS %:       -nan   MPKI: 0
PSCL3 WRITEBACK ACCESS:          0  HIT:          0  MISS:          0  HIT %:       -nan  MISS %:       -nan   MPKI: 0
PSCL2 TOTAL     ACCESS:     236077  HIT:     235917  MISS:        160  HIT %:    99.9322  MISS %:  0.0677745   MPKI: 0.000795843
PSCL2 LOAD      ACCESS:          0  HIT:          0  MISS:          0  HIT %:       -nan  MISS %:       -nan   MPKI: 0
PSCL2 RFO       ACCESS:          0  HIT:          0  MISS:          0  HIT %:       -nan  MISS %:       -nan   MPKI: 0
PSCL2 PREFETCH  ACCESS:          0  HIT:          0  MISS:          0  HIT %:       -nan  MISS %:       -nan   MPKI: 0
PSCL2 WRITEBACK ACCESS:          0  HIT:          0  MISS:          0  HIT %:       -nan  MISS %:       -nan   MPKI: 0
LLC TOTAL     ACCESS:    7564594  HIT:    2918411  MISS:    4646183  HIT %:    38.5799  MISS %:    61.4201   MPKI: 23.1102
LLC LOAD      ACCESS:     115284  HIT:         14  MISS:     115270  HIT %:  0.0121439  MISS %:    99.9879   MPKI: 0.573355
LLC RFO       ACCESS:    3011443  HIT:          0  MISS:    3011443  HIT %:          0  MISS %:        100   MPKI: 14.979
LLC PREFETCH  ACCESS:    1416410  HIT:        148  MISS:    1416262  HIT %:   0.010449  MISS %:    99.9896   MPKI: 7.04451
LLC WRITEBACK ACCESS:    3011952  HIT:    2917809  MISS:      94143  HIT %:    96.8744  MISS %:    3.12565   MPKI: 0.468269

RAW hits: 217
Loads Generated: 22952580
Loads sent to L1D: 22952363
Stores Generated: 42064896
Stores sent to L1D: 42064896

CPU 2 cumulative IPC: 0.375646 instructions: 200650860 cycles: 534148237
ITLB TOTAL     ACCESS:   25354102  HIT:   25354102  MISS:          0  HIT %:        100  MISS %:          0   MPKI: 0
ITLB LOAD      ACCESS:          0  HIT:          0  MISS:          0  HIT %:       -nan  MISS %:       -nan   MPKI: 0
ITLB RFO       ACCESS:          0  HIT:          0  MISS:          0  HIT %:       -nan  MISS %:       -nan   MPKI: 0
ITLB PREFETCH  ACCESS:          0  HIT:          0  MISS:          0  HIT %:       -nan  MISS %:       -nan   MPKI: 0
ITLB WRITEBACK ACCESS:          0  HIT:          0  MISS:          0  HIT %:       -nan  MISS %:       -nan   MPKI: 0
DTLB TOTAL     ACCESS:   29539625  HIT:   29468784  MISS:      70841  HIT %:    99.7602  MISS %:   0.239817   MPKI: 0.353056
DTLB LOAD      ACCESS:          0  HIT:          0  MISS:          0  HIT %:       -nan  MISS %:       -nan   MPKI: 0
DTLB RFO       ACCESS:          0  HIT:          0  MISS:          0  HIT %:       -nan  MISS %:       -nan   MPKI: 0
DTLB PREFETCH  ACCESS:          0  HIT:          0  MISS:          0  HIT %:       -nan  MISS %:       -nan   MPKI: 0
DTLB WRITEBACK ACCESS:          0  HIT:          0  MISS:          0  HIT %:       -nan  MISS %:       -nan   MPKI: 0
STLB TOTAL     ACCESS:    5296643  HIT:    5225802  MISS:      70841  HIT %:    98.6625  MISS %:    1.33747   MPKI: 0.353056
STLB LOAD      ACCESS:          0  HIT:          0  MISS:          0  HIT %:       -nan  MISS %:       -nan   MPKI: 0
STLB RFO       ACCESS:          0  HIT:          0  MISS:          0  HIT %:       -nan  MISS %:       -nan   MPKI: 0
STLB PREFETCH  ACCESS:          0  HIT:          0  MISS:          0  HIT %:       -nan  MISS %:       -nan   MPKI: 0
STLB WRITEBACK ACCESS:          0  HIT:          0  MISS:          0  HIT %:       -nan  MISS %:       -nan   MPKI: 0
L1D TOTAL     ACCESS:   14335180  HIT:    9803434  MISS:    4531746  HIT %:    68.3872  MISS %:    31.6128   MPKI: 22.5852
L1D LOAD      ACCESS:    6809932  HIT:    5551697  MISS:    1258235  HIT %:    81.5235  MISS %:    18.4765   MPKI: 6.27077
L1D RFO       ACCESS:    3725331  HIT:     723745  MISS:    3001586  HIT %:    19.4277  MISS %:    80.5723   MPKI: 14.9592
L1D PREFETCH  ACCESS:    3799917  HIT:    3527992  MISS:     271925  HIT %:    92.8439  MISS %:    7.15608   MPKI: 1.35521
L1D WRITEBACK ACCESS:          0  HIT:          0  MISS:          0  HIT %:       -nan  MISS %:       -nan   MPKI: 0
L1I TOTAL     ACCESS:   44604971  HIT:   44604962  MISS:          9  HIT %:        100  MISS %: 2.01771e-05   MPKI: 4.4854e-05
L1I LOAD      ACCESS:   44604971  HIT:   44604962  MISS:          9  HIT %:        100  MISS %: 2.01771e-05   MPKI: 4.4854e-05
L1I RFO       ACCESS:          0  HIT:          0  MISS:          0  HIT %:       -nan  MISS %:       -nan   MPKI: 0
L1I PREFETCH  ACCESS:          0  HIT:          0  MISS:          0  HIT %:       -nan  MISS %:       -nan   MPKI: 0
L1I WRITEBACK ACCESS:          0  HIT:          0  MISS:          0  HIT %:       -nan  MISS %:       -nan   MPKI: 0
L2C TOTAL     ACCESS:   10154621  HIT:    5302142  MISS:    4852479  HIT %:    52.2141  MISS %:    47.7859   MPKI: 24.1837
L2C LOAD      ACCESS:    1239780  HIT:     766077  MISS:     473703  HIT %:    61.7914  MISS %:    38.2086   MPKI: 2.36083
L2C RFO       ACCESS:    3001586  HIT:          0  MISS:    3001586  HIT %:          0  MISS %:        100   MPKI: 14.9592
L2C PREFETCH  ACCESS:    2675007  HIT:    1618687  MISS:    1056320  HIT %:    60.5115  MISS %:    39.4885   MPKI: 5.26447
L2C WRITEBACK ACCESS:    3001595  HIT:    2690210  MISS:     311385  HIT %:     89.626  MISS %:     10.374   MPKI: 1.55187
PSCL5 TOTAL     ACCESS:     236623  HIT:     236623  MISS:          0  HIT %:        100  MISS %:          0   MPKI: 0
PSCL5 LOAD      ACCESS:          0  HIT:          0  MISS:          0  HIT %:       -nan  MISS %:       -nan   MPKI: 0
PSCL5 RFO       ACCESS:          0  HIT:          0  MISS:          0  HIT %:       -nan  MISS %:       -nan   MPKI: 0
PSCL5 PREFETCH  ACCESS:          0  HIT:          0  MISS:          0  HIT %:       -nan  MISS %:       -nan   MPKI: 0
PSCL5 WRITEBACK ACCESS:          0  HIT:          0  MISS:          0  HIT %:       -nan  MISS %:       -nan   MPKI: 0
PSCL4 TOTAL     ACCESS:     236623  HIT:     236623  MISS:          0  HIT %:        100  MISS %:          0   MPKI: 0
PSCL4 LOAD      ACCESS:          0  HIT:          0  MISS:          0  HIT %:       -nan  MISS %:       -nan   MPKI: 0
PSCL4 RFO       ACCESS:          0  HIT:          0  MISS:          0  HIT %:       -nan  MISS %:       -nan   MPKI: 0
PSCL4 PREFETCH  ACCESS:          0  HIT:          0  MISS:          0  HIT %:       -nan  MISS %:       -nan   MPKI: 0
PSCL4 WRITEBACK ACCESS:          0  HIT:          0  MISS:          0  HIT %:       -nan  MISS %:       -nan   MPKI: 0
PSCL3 TOTAL     ACCESS:     236623  HIT:     236623  MISS:          0  HIT %:        100  MISS %:          0   MPKI: 0
PSCL3 LOAD      ACCESS:          0  HIT:          0  MISS:          0  HIT %:       -nan  MISS %:       -nan   MPKI: 0
PSCL3 RFO       ACCESS:          0  HIT:          0  MISS:          0  HIT %:       -nan  MISS %:       -nan   MPKI: 0
PSCL3 PREFETCH  ACCESS:          0  HIT:          0  MISS:          0  HIT %:       -nan  MISS %:       -nan   MPKI: 0
PSCL3 WRITEBACK ACCESS:          0  HIT:          0  MISS:          0  HIT %:       -nan  MISS %:       -nan   MPKI: 0
PSCL2 TOTAL     ACCESS:     236488  HIT:     236328  MISS:        160  HIT %:    99.9323  MISS %:  0.0676567   MPKI: 0.000797405
PSCL2 LOAD      ACCESS:          0  HIT:          0  MISS:          0  HIT %:       -nan  MISS %:       -nan   MPKI: 0
PSCL2 RFO       ACCESS:          0  HIT:          0  MISS:          0  HIT %:       -nan  MISS %:       -nan   MPKI: 0
PSCL2 PREFETCH  ACCESS:          0  HIT:          0  MISS:          0  HIT %:       -nan  MISS %:       -nan   MPKI: 0
PSCL2 WRITEBACK ACCESS:          0  HIT:          0  MISS:          0  HIT %:       -nan  MISS %:       -nan   MPKI: 0
LLC TOTAL     ACCESS:    7543352  HIT:    2908466  MISS:    4634886  HIT %:    38.5567  MISS %:    61.4433   MPKI: 23.0993
LLC LOAD      ACCESS:     115739  HIT:         11  MISS:     115728  HIT %: 0.00950414  MISS %:    99.9905   MPKI: 0.576763
LLC RFO       ACCESS:    3001586  HIT:          0  MISS:    3001586  HIT %:          0  MISS %:        100   MPKI: 14.9592
LLC PREFETCH  ACCESS:    1414284  HIT:        131  MISS:    1414153  HIT %: 0.00926264  MISS %:    99.9907   MPKI: 7.04783
LLC WRITEBACK ACCESS:    3002258  HIT:    2907869  MISS:      94389  HIT %:    96.8561  MISS %:    3.14393   MPKI: 0.470414

RAW hits: 217
Loads Generated: 22900074
Loads sent to L1D: 22899857
Stores Generated: 42012408
Stores sent to L1D: 42012390

CPU 3 cumulative IPC: 0.375534 instructions: 200590571 cycles: 534148237
ITLB TOTAL     ACCESS:   25340258  HIT:   25340258  MISS:          0  HIT %:        100  MISS %:          0   MPKI: 0
ITLB LOAD      ACCESS:          0  HIT:          0  MISS:          0  HIT %:       -nan  MISS %:       -nan   MPKI: 0
ITLB RFO       ACCESS:          0  HIT:          0  MISS:          0  HIT %:       -nan  MISS %:       -nan   MPKI: 0
ITLB PREFETCH  ACCESS:          0  HIT:          0  MISS:          0  HIT %:       -nan  MISS %:       -nan   MPKI: 0
ITLB WRITEBACK ACCESS:          0  HIT:          0  MISS:          0  HIT %:       -nan  MISS %:       -nan   MPKI: 0
DTLB TOTAL     ACCESS:   29539965  HIT:   29469151  MISS:      70814  HIT %:    99.7603  MISS %:   0.239723   MPKI: 0.353028
DTLB LOAD      ACCESS:          0  HIT:          0  MISS:          0  HIT %:       -nan  MISS %:       -nan   MPKI: 0
DTLB RFO       ACCESS:          0  HIT:          0  MISS:          0  HIT %:       -nan  MISS %:       -nan   MPKI: 0
DTLB PREFETCH  ACCESS:          0  HIT:          0  MISS:          0  HIT %:       -nan  MISS %:       -nan   MPKI: 0
DTLB WRITEBACK ACCESS:          0  HIT:          0  MISS:          0  HIT %:       -nan  MISS %:       -nan   MPKI: 0
STLB TOTAL     ACCESS:    5297587  HIT:    5226773  MISS:      70814  HIT %:    98.6633  MISS %:    1.33672   MPKI: 0.353028
STLB LOAD      ACCESS:          0  HIT:          0  MISS:          0  HIT %:       -nan  MISS %:       -nan   MPKI: 0
STLB RFO       ACCESS:          0  HIT:          0  MISS:          0  HIT %:       -nan  MISS %:       -nan   MPKI: 0
STLB PREFETCH  ACCESS:          0  HIT:          0  MISS:          0  HIT %:       -nan  MISS %:       -nan   MPKI: 0
STLB WRITEBACK ACCESS:          0  HIT:          0  MISS:          0  HIT %:       -nan  MISS %:       -nan   MPKI: 0
L1D TOTAL     ACCESS:   14343796  HIT:    9813746  MISS:    4530050  HIT %:    68.4181  MISS %:    31.5819   MPKI: 22.5836
L1D LOAD      ACCESS:    6812445  HIT:    5553608  MISS:    1258837  HIT %:    81.5215  MISS %:    18.4785   MPKI: 6.27565
L1D RFO       ACCESS:    3720447  HIT:     720370  MISS:    3000077  HIT %:    19.3625  MISS %:    80.6375   MPKI: 14.9562
L1D PREFETCH  ACCESS:    3810904  HIT:    3539768  MISS:     271136  HIT %:    92.8853  MISS %:    7.11474   MPKI: 1.35169
L1D WRITEBACK ACCESS:          0  HIT:          0  MISS:          0  HIT %:       -nan  MISS %:       -nan   MPKI: 0
L1I TOTAL     ACCESS:   44591084  HIT:   44591075  MISS:          9  HIT %:        100  MISS %: 2.01834e-05   MPKI: 4.48675e-05
L1I LOAD      ACCESS:   44591084  HIT:   44591075  MISS:          9  HIT %:        100  MISS %: 2.01834e-05   MPKI: 4.48675e-05
L1I RFO       ACCESS:          0  HIT:          0  MISS:          0  HIT %:       -nan  MISS %:       -nan   MPKI: 0
L1I PREFETCH  ACCESS:          0  HIT:          0  MISS:          0  HIT %:       -nan  MISS %:       -nan   MPKI: 0
L1I WRITEBACK ACCESS:          0  HIT:          0  MISS:          0  HIT %:       -nan  MISS %:       -nan   MPKI: 0
L2C TOTAL     ACCESS:   10064611  HIT:    5210200  MISS:    4854411  HIT %:    51.7675  MISS %:    48.2325   MPKI: 24.2006
L2C LOAD      ACCESS:    1241529  HIT:     766606  MISS:     474923  HIT %:    61.7469  MISS %:    38.2531   MPKI: 2.36762
L2C RFO       ACCESS:    3000077  HIT:          0  MISS:    3000077  HIT %:          0  MISS %:        100   MPKI: 14.9562
L2C PREFETCH  ACCESS:    2584536  HIT:    1529633  MISS:    1054903  HIT %:     59.184  MISS %:     40.816   MPKI: 5.25899
L2C WRITEBACK ACCESS:    3000084  HIT:    2685079  MISS:     315005  HIT %:    89.5001  MISS %:    10.4999   MPKI: 1.57039
PSCL5 TOTAL     ACCESS:     238355  HIT:     238355  MISS:          0  HIT %:        100  MISS %:          0   MPKI: 0
PSCL5 LOAD      ACCESS:          0  HIT:          0  MISS:          0  HIT %:       -nan  MISS %:       -nan   MPKI: 0
PSCL5 RFO       ACCESS:          0  HIT:          0  MISS:          0  HIT %:       -nan  MISS %:       -nan   MPKI: 0
PSCL5 PREFETCH  ACCESS:          0  HIT:          0  MISS:          0  HIT %:       -nan  MISS %:       -nan   MPKI: 0
PSCL5 WRITEBACK ACCESS:          0  HIT:          0  MISS:          0  HIT %:       -nan  MISS %:       -nan   MPKI: 0
PSCL4 TOTAL     ACCESS:     238355  HIT:     238355  MISS:          0  HIT %:        100  MISS %:          0   MPKI: 0
PSCL4 LOAD      ACCESS:          0  HIT:          0  MISS:          0  HIT %:       -nan  MISS %:       -nan   MPKI: 0
PSCL4 RFO       ACCESS:          0  HIT:          0  MISS:          0  HIT %:       -nan  MISS %:       -nan   MPKI: 0
PSCL4 PREFETCH  ACCESS:          0  HIT:          0  MISS:          0  HIT %:       -nan  MISS %:       -nan   MPKI: 0
PSCL4 WRITEBACK ACCESS:          0  HIT:          0  MISS:          0  HIT %:       -nan  MISS %:       -nan   MPKI: 0
PSCL3 TOTAL     ACCESS:     238355  HIT:     238355  MISS:          0  HIT %:        100  MISS %:          0   MPKI: 0
PSCL3 LOAD      ACCESS:          0  HIT:          0  MISS:          0  HIT %:       -nan  MISS %:       -nan   MPKI: 0
PSCL3 RFO       ACCESS:          0  HIT:          0  MISS:          0  HIT %:       -nan  MISS %:       -nan   MPKI: 0
PSCL3 PREFETCH  ACCESS:          0  HIT:          0  MISS:          0  HIT %:       -nan  MISS %:       -nan   MPKI: 0
PSCL3 WRITEBACK ACCESS:          0  HIT:          0  MISS:          0  HIT %:       -nan  MISS %:       -nan   MPKI: 0
PSCL2 TOTAL     ACCESS:     238253  HIT:     238093  MISS:        160  HIT %:    99.9328  MISS %:  0.0671555   MPKI: 0.000797645
PSCL2 LOAD      ACCESS:          0  HIT:          0  MISS:          0  HIT %:       -nan  MISS %:       -nan   MPKI: 0
PSCL2 RFO       ACCESS:          0  HIT:          0  MISS:          0  HIT %:       -nan  MISS %:       -nan   MPKI: 0
PSCL2 PREFETCH  ACCESS:          0  HIT:          0  MISS:          0  HIT %:       -nan  MISS %:       -nan   MPKI: 0
PSCL2 WRITEBACK ACCESS:          0  HIT:          0  MISS:          0  HIT %:       -nan  MISS %:       -nan   MPKI: 0
LLC TOTAL     ACCESS:    7540443  HIT:    2908257  MISS:    4632186  HIT %:    38.5688  MISS %:    61.4312   MPKI: 23.0927
LLC LOAD      ACCESS:     116560  HIT:         12  MISS:     116548  HIT %:  0.0102951  MISS %:    99.9897   MPKI: 0.581024
LLC RFO       ACCESS:    3000077  HIT:          0  MISS:    3000077  HIT %:          0  MISS %:        100   MPKI: 14.9562
LLC PREFETCH  ACCESS:    1413266  HIT:        164  MISS:    1413102  HIT %:  0.0116043  MISS %:    99.9884   MPKI: 7.04471
LLC WRITEBACK ACCESS:    3001037  HIT:    2907605  MISS:      93432  HIT %:    96.8867  MISS %:    3.11332   MPKI: 0.465785

RAW hits: 222
Loads Generated: 22892032
Loads sent to L1D: 22891807
Stores Generated: 42004352
Stores sent to L1D: 42004352

Region of Interest Statistics

CPU 0 cumulative IPC: 0.374428 instructions: 200000002 cycles: 534148237
ITLB TOTAL     ACCESS:   25219464  HIT:   25219464  MISS:          0  HIT %:        100  MISS %:          0   MPKI: 0
ITLB LOAD TRANSLATION ACCESS:   25219464  HIT:   25219464  MISS:          0  HIT %:        100  MISS %:          0   MPKI: 0
ITLB PREFETCH  REQUESTED:          0  ISSUED:          0  USEFUL:          0  USELESS:          0
ITLB USEFUL LOAD PREFETCHES:          0 PREFETCH ISSUED TO LOWER LEVEL:          0  ACCURACY: -nan
ITLB TIMELY PREFETCHES:          0 LATE PREFETCHES: 0 DROPPED PREFETCHES: 0
ITLB PREFETCHES SAME FILL-ORIGIN LEVEL: 0 DIFFERENT FILL-ORIGIN LEVEL: 0
ITLB AVERAGE MISS LATENCY: -nan cycles
ITLB RQ	ACCESS:   44469513	FORWARD:          0	MERGED:   19250050	TO_CACHE:   25219463

DTLB TOTAL     ACCESS:   29476800  HIT:   29406262  MISS:      70538  HIT %:    99.7607  MISS %:     0.2393   MPKI: 0.35269
DTLB LOAD TRANSLATION ACCESS:   29476800  HIT:   29406262  MISS:      70538  HIT %:    99.7607  MISS %:     0.2393   MPKI: 0.35269
DTLB PREFETCH  REQUESTED:          0  ISSUED:          0  USEFUL:          0  USELESS:          0
DTLB USEFUL LOAD PREFETCHES:          0 PREFETCH ISSUED TO LOWER LEVEL:          0  ACCURACY: -nan
DTLB TIMELY PREFETCHES:          0 LATE PREFETCHES: 0 DROPPED PREFETCHES: 0
DTLB PREFETCHES SAME FILL-ORIGIN LEVEL: 0 DIFFERENT FILL-ORIGIN LEVEL: 0
DTLB AVERAGE MISS LATENCY: 264.818 cycles
DTLB RQ	ACCESS:   50834500	FORWARD:          0	MERGED:   21011536	TO_CACHE:   29822964

STLB TOTAL     ACCESS:    5283972  HIT:    5213434  MISS:      70538  HIT %:    98.6651  MISS %:    1.33494   MPKI: 0.35269
STLB LOAD TRANSLATION ACCESS:      70538  HIT:       3856  MISS:      66682  HIT %:    5.46656  MISS %:    94.5334   MPKI: 0.33341
STLB TRANSLATION FROM L1D PREFETCHER ACCESS:    5213434  HIT:    5209578  MISS:       3856  HIT %:     99.926  MISS %:  0.0739628   MPKI: 0.01928
STLB PREFETCH  REQUESTED:          0  ISSUED:          0  USEFUL:       3856  USELESS:          0
STLB USEFUL LOAD PREFETCHES:       3856 PREFETCH ISSUED TO LOWER LEVEL:          0  ACCURACY: inf
STLB TIMELY PREFETCHES:       3856 LATE PREFETCHES: 5108 DROPPED PREFETCHES: 160550
STLB PREFETCHES SAME FILL-ORIGIN LEVEL: 0 DIFFERENT FILL-ORIGIN LEVEL: 0
STLB AVERAGE MISS LATENCY: 268.431 cycles
STLB RQ	ACCESS:   12094612	FORWARD:          0	MERGED:    6606603	TO_CACHE:    5488009

STLB Hit, L1D data hit: 0
STLB Hit, L2C data hit: 0
STLB Hit, LLC data hit: 0
STLB Hit, LLC data miss: 0
STLB STLB hints to L2: 0
L1D TOTAL     ACCESS:   14320680  HIT:    9807594  MISS:    4513086  HIT %:    68.4855  MISS %:    31.5145   MPKI: 22.5654
L1D LOAD      ACCESS:    6791116  HIT:    5536503  MISS:    1254613  HIT %:    81.5257  MISS %:    18.4743   MPKI: 6.27306
L1D RFO       ACCESS:    3707434  HIT:     721805  MISS:    2985629  HIT %:    19.4691  MISS %:    80.5309   MPKI: 14.9281
L1D PREFETCH  ACCESS:    3822130  HIT:    3549286  MISS:     272844  HIT %:    92.8615  MISS %:    7.13853   MPKI: 1.36422
L1D PREFETCH  REQUESTED:   28665825  ISSUED:   28609909  USEFUL:     272589  USELESS:        264
L1D USEFUL LOAD PREFETCHES:     272589 PREFETCH ISSUED TO LOWER LEVEL:    7418298  ACCURACY: 3.67455
L1D TIMELY PREFETCHES:     272589 LATE PREFETCHES: 18072 DROPPED PREFETCHES: 260185
L1D PREFETCHES SAME FILL-ORIGIN LEVEL: 290916 DIFFERENT FILL-ORIGIN LEVEL: 7127382
L1D AVERAGE MISS LATENCY: 974.549 cycles
L1D RQ	ACCESS:   22813167	FORWARD:          0	MERGED:   13905234	TO_CACHE:    8907927
L1D WQ	ACCESS:   41926573	FORWARD:          6	MERGED:          0	TO_CACHE:   41926573
L1D PQ	ACCESS:   16585835	FORWARD:          0	MERGED:    4561761	TO_CACHE:   12024074

L1D UNIQUE REGIONS ACCESSED: 0
L1D REGIONS CONFLICTS: 0
L1D Cross Page Prefetch Requests: 4843130
L1D Same Page Prefetch Requests: 39121112
L1D ROI Sum of L1D PQ occupancy: 497353419
L1D PREFETCHES PUSHED FROM L2C: 0
L1I TOTAL     ACCESS:   44469513  HIT:   44469504  MISS:          9  HIT %:        100  MISS %: 2.02386e-05   MPKI: 4.5e-05
L1I LOAD      ACCESS:   44469513  HIT:   44469504  MISS:          9  HIT %:        100  MISS %: 2.02386e-05   MPKI: 4.5e-05
L1I PREFETCH  REQUESTED:          0  ISSUED:          0  USEFUL:          0  USELESS:          0
L1I USEFUL LOAD PREFETCHES:          0 PREFETCH ISSUED TO LOWER LEVEL:          0  ACCURACY: -nan
L1I TIMELY PREFETCHES:          0 LATE PREFETCHES: 0 DROPPED PREFETCHES: 0
L1I PREFETCHES SAME FILL-ORIGIN LEVEL: 0 DIFFERENT FILL-ORIGIN LEVEL: 0
L1I AVERAGE MISS LATENCY: 1877.89 cycles
L1I RQ	ACCESS:   47024220	FORWARD:          0	MERGED:    2554707	TO_CACHE:   44469513

BTB TOTAL     ACCESS:   22603739  HIT:   22603685  MISS:         54  HIT %:    99.9998  MISS %: 0.000238899   MPKI: 0.00027
BTB BRANCH_DIRECT_JUMP	ACCESS:         28  HIT:         15  MISS:         13
BTB BRANCH_INDIRECT	ACCESS:          0  HIT:          0  MISS:          0
BTB BRANCH_CONDITIONAL	ACCESS:   22603703  HIT:   22603668  MISS:         35
BTB BRANCH_DIRECT_CALL	ACCESS:          4  HIT:          1  MISS:          3
BTB BRANCH_INDIRECT_CALL	ACCESS:          0  HIT:          0  MISS:          0
BTB BRANCH_RETURN	ACCESS:          4  HIT:          1  MISS:          3
BTB BRANCH_OTHER ACCESS:          0  HIT:          0  MISS:          0

L2C TOTAL     ACCESS:   10077668  HIT:    5243939  MISS:    4833729  HIT %:    52.0352  MISS %:    47.9648   MPKI: 24.1686
L2C LOAD      ACCESS:    1236550  HIT:     762704  MISS:     473846  HIT %:      61.68  MISS %:      38.32   MPKI: 2.36923
L2C DATA LOAD MPKI: 2.36918
L2C INSTRUCTION LOAD MPKI: 4.5e-05
L2C RFO       ACCESS:    2985629  HIT:          0  MISS:    2985629  HIT %:          0  MISS %:        100   MPKI: 14.9281
L2C PREFETCH  ACCESS:    2633443  HIT:    1579933  MISS:    1053510  HIT %:     59.995  MISS %:     40.005   MPKI: 5.26755
L2C DATA PREFETCH MPKI: 5.26755
L2C INSTRUCTION PREFETCH MPKI: 0
L2C WRITEBACK ACCESS:    2985841  HIT:    2674548  MISS:     311293  HIT %:    89.5744  MISS %:    10.4256   MPKI: 1.55646
L2C LOAD TRANSLATION ACCESS:      66680  HIT:      60633  MISS:       6047  HIT %:    90.9313  MISS %:    9.06869   MPKI: 0.030235
L2C TRANSLATION FROM L1D PREFETCHER ACCESS:     169525  HIT:     166121  MISS:       3404  HIT %:     97.992  MISS %:    2.00796   MPKI: 0.01702
L2C PREFETCH  REQUESTED:          0  ISSUED:          0  USEFUL:     765715  USELESS:     291057
L2C USEFUL LOAD PREFETCHES:     765715 PREFETCH ISSUED TO LOWER LEVEL:    1411387  ACCURACY: 54.2527
L2C TIMELY PREFETCHES:     765715 LATE PREFETCHES: 357877 DROPPED PREFETCHES: 0
L2C PREFETCHES SAME FILL-ORIGIN LEVEL: 1277733 DIFFERENT FILL-ORIGIN LEVEL: 0
L2C AVERAGE MISS LATENCY: 1092.32 cycles
L2C RQ	ACCESS:    4458383	FORWARD:          0	MERGED:          0	TO_CACHE:    4458383
L2C WQ	ACCESS:    2985841	FORWARD:          0	MERGED:          0	TO_CACHE:    2985841
L2C PQ	ACCESS:    7418005	FORWARD:          0	MERGED:      84684	TO_CACHE:    7333321

L2C Instructions Evicting Data 9
L2C Translations Evicting Data 9436
L2C Data Evicting Data 4504091
L2C Instructions Evicting Instructions 0
L2C Translations Evicting Instructions 0
L2C Data Evicting Instructions 7
L2C Instructions Evicting Translations 0
L2C Translations Evicting Translations 15
L2C Data Evicting Translations 8878
L2C Dense regions hint from L2: 0
PSCL5 TOTAL     ACCESS:     236182  HIT:     236182  MISS:          0  HIT %:        100  MISS %:          0   MPKI: 0
PSCL5 LOAD TRANSLATION ACCESS:      66668  HIT:      66668  MISS:          0  HIT %:        100  MISS %:          0   MPKI: 0
PSCL5 TRANSLATION FROM L1D PREFETCHER ACCESS:     169514  HIT:     169514  MISS:          0  HIT %:        100  MISS %:          0   MPKI: 0
PSCL5 PREFETCH  REQUESTED:          0  ISSUED:          0  USEFUL:          0  USELESS:          0
PSCL5 USEFUL LOAD PREFETCHES:          0 PREFETCH ISSUED TO LOWER LEVEL:          0  ACCURACY: -nan
PSCL5 TIMELY PREFETCHES:          0 LATE PREFETCHES: 0 DROPPED PREFETCHES: 0
PSCL5 PREFETCHES SAME FILL-ORIGIN LEVEL: 0 DIFFERENT FILL-ORIGIN LEVEL: 0

PSCL4 TOTAL     ACCESS:     236182  HIT:     236182  MISS:          0  HIT %:        100  MISS %:          0   MPKI: 0
PSCL4 LOAD TRANSLATION ACCESS:      66668  HIT:      66668  MISS:          0  HIT %:        100  MISS %:          0   MPKI: 0
PSCL4 TRANSLATION FROM L1D PREFETCHER ACCESS:     169514  HIT:     169514  MISS:          0  HIT %:        100  MISS %:          0   MPKI: 0
PSCL4 PREFETCH  REQUESTED:          0  ISSUED:          0  USEFUL:          0  USELESS:          0
PSCL4 USEFUL LOAD PREFETCHES:          0 PREFETCH ISSUED TO LOWER LEVEL:          0  ACCURACY: -nan
PSCL4 TIMELY PREFETCHES:          0 LATE PREFETCHES: 0 DROPPED PREFETCHES: 0
PSCL4 PREFETCHES SAME FILL-ORIGIN LEVEL: 0 DIFFERENT FILL-ORIGIN LEVEL: 0

PSCL3 TOTAL     ACCESS:     236182  HIT:     236182  MISS:          0  HIT %:        100  MISS %:          0   MPKI: 0
PSCL3 LOAD TRANSLATION ACCESS:      66668  HIT:      66668  MISS:          0  HIT %:        100  MISS %:          0   MPKI: 0
PSCL3 TRANSLATION FROM L1D PREFETCHER ACCESS:     169514  HIT:     169514  MISS:          0  HIT %:        100  MISS %:          0   MPKI: 0
PSCL3 PREFETCH  REQUESTED:          0  ISSUED:          0  USEFUL:          0  USELESS:          0
PSCL3 USEFUL LOAD PREFETCHES:          0 PREFETCH ISSUED TO LOWER LEVEL:          0  ACCURACY: -nan
PSCL3 TIMELY PREFETCHES:          0 LATE PREFETCHES: 0 DROPPED PREFETCHES: 0
PSCL3 PREFETCHES SAME FILL-ORIGIN LEVEL: 0 DIFFERENT FILL-ORIGIN LEVEL: 0

PSCL2 TOTAL     ACCESS:     236064  HIT:     235911  MISS:        153  HIT %:    99.9352  MISS %:  0.0648129   MPKI: 0.000765
PSCL2 LOAD TRANSLATION ACCESS:      66679  HIT:      66526  MISS:        153  HIT %:    99.7705  MISS %:   0.229458   MPKI: 0.000765
PSCL2 TRANSLATION FROM L1D PREFETCHER ACCESS:     169385  HIT:     169385  MISS:          0  HIT %:        100  MISS %:          0   MPKI: 0
PSCL2 PREFETCH  REQUESTED:          0  ISSUED:          0  USEFUL:          0  USELESS:          0
PSCL2 USEFUL LOAD PREFETCHES:          0 PREFETCH ISSUED TO LOWER LEVEL:          0  ACCURACY: -nan
PSCL2 TIMELY PREFETCHES:          0 LATE PREFETCHES: 0 DROPPED PREFETCHES: 0
PSCL2 PREFETCHES SAME FILL-ORIGIN LEVEL: 0 DIFFERENT FILL-ORIGIN LEVEL: 0

LLC TOTAL     ACCESS:    7510488  HIT:    2894486  MISS:    4616002  HIT %:    38.5393  MISS %:    61.4607   MPKI: 23.08
LLC LOAD      ACCESS:     115969  HIT:         17  MISS:     115952  HIT %:  0.0146591  MISS %:    99.9853   MPKI: 0.57976
LLC RFO       ACCESS:    2985629  HIT:          0  MISS:    2985629  HIT %:          0  MISS %:        100   MPKI: 14.9281
LLC PREFETCH  ACCESS:    1411387  HIT:        161  MISS:    1411226  HIT %:  0.0114072  MISS %:    99.9886   MPKI: 7.05613
LLC WRITEBACK ACCESS:    2988052  HIT:    2893836  MISS:      94216  HIT %:    96.8469  MISS %:    3.15309   MPKI: 0.47108
LLC LOAD TRANSLATION ACCESS:       6047  HIT:         23  MISS:       6024  HIT %:   0.380354  MISS %:    99.6196   MPKI: 0.03012
LLC TRANSLATION FROM L1D PREFETCHER ACCESS:       3404  HIT:        449  MISS:       2955  HIT %:    13.1904  MISS %:    86.8096   MPKI: 0.014775
LLC PREFETCH  REQUESTED:          0  ISSUED:          0  USEFUL:        733  USELESS:    5654710
LLC USEFUL LOAD PREFETCHES:        733 PREFETCH ISSUED TO LOWER LEVEL:  124261004  ACCURACY: 0.000589887
LLC TIMELY PREFETCHES:        733 LATE PREFETCHES: 0 DROPPED PREFETCHES: 0
LLC PREFETCHES SAME FILL-ORIGIN LEVEL: 0 DIFFERENT FILL-ORIGIN LEVEL: 0
LLC AVERAGE MISS LATENCY: 4646.56 cycles
LLC RQ	ACCESS:   12500274	FORWARD:          0	MERGED:          0	TO_CACHE:   12500274
LLC WQ	ACCESS:   12003302	FORWARD:          0	MERGED:          0	TO_CACHE:   12003302
LLC PQ	ACCESS:    5655356	FORWARD:          0	MERGED:          0	TO_CACHE:    5655356

LLC Dense regions hint to LLC: 0

RAW hits: 21
Loads Generated: 22813188
Loads sent to L1D: 22813167
Stores Generated: 41926569
Stores sent to L1D: 41926573
Major fault: 0 Minor fault: 89627
Allocated PAGES: 358508

CPU 1 cumulative IPC: 0.376395 instructions: 200000002 cycles: 531356054
ITLB TOTAL     ACCESS:   25217486  HIT:   25217486  MISS:          0  HIT %:        100  MISS %:          0   MPKI: 0
ITLB LOAD TRANSLATION ACCESS:   25217486  HIT:   25217486  MISS:          0  HIT %:        100  MISS %:          0   MPKI: 0
ITLB PREFETCH  REQUESTED:          0  ISSUED:          0  USEFUL:          0  USELESS:          0
ITLB USEFUL LOAD PREFETCHES:          0 PREFETCH ISSUED TO LOWER LEVEL:          0  ACCURACY: -nan
ITLB TIMELY PREFETCHES:          0 LATE PREFETCHES: 0 DROPPED PREFETCHES: 0
ITLB PREFETCHES SAME FILL-ORIGIN LEVEL: 0 DIFFERENT FILL-ORIGIN LEVEL: 0
ITLB AVERAGE MISS LATENCY: -nan cycles
ITLB RQ	ACCESS:   44681081	FORWARD:          0	MERGED:   19250416	TO_CACHE:   25430665

DTLB TOTAL     ACCESS:   29478764  HIT:   29408226  MISS:      70538  HIT %:    99.7607  MISS %:   0.239284   MPKI: 0.35269
DTLB LOAD TRANSLATION ACCESS:   29478764  HIT:   29408226  MISS:      70538  HIT %:    99.7607  MISS %:   0.239284   MPKI: 0.35269
DTLB PREFETCH  REQUESTED:          0  ISSUED:          0  USEFUL:          0  USELESS:          0
DTLB USEFUL LOAD PREFETCHES:          0 PREFETCH ISSUED TO LOWER LEVEL:          0  ACCURACY: -nan
DTLB TIMELY PREFETCHES:          0 LATE PREFETCHES: 0 DROPPED PREFETCHES: 0
DTLB PREFETCHES SAME FILL-ORIGIN LEVEL: 0 DIFFERENT FILL-ORIGIN LEVEL: 0
DTLB AVERAGE MISS LATENCY: 265.16 cycles
DTLB RQ	ACCESS:   51008541	FORWARD:          0	MERGED:   21080800	TO_CACHE:   29927741

STLB TOTAL     ACCESS:    5288095  HIT:    5217557  MISS:      70538  HIT %:    98.6661  MISS %:     1.3339   MPKI: 0.35269
STLB LOAD TRANSLATION ACCESS:      70538  HIT:       3861  MISS:      66677  HIT %:    5.47365  MISS %:    94.5264   MPKI: 0.333385
STLB TRANSLATION FROM L1D PREFETCHER ACCESS:    5217557  HIT:    5213696  MISS:       3861  HIT %:     99.926  MISS %:  0.0740001   MPKI: 0.019305
STLB PREFETCH  REQUESTED:          0  ISSUED:          0  USEFUL:       3929  USELESS:          0
STLB USEFUL LOAD PREFETCHES:       3929 PREFETCH ISSUED TO LOWER LEVEL:          0  ACCURACY: inf
STLB TIMELY PREFETCHES:       3929 LATE PREFETCHES: 5107 DROPPED PREFETCHES: 160055
STLB PREFETCHES SAME FILL-ORIGIN LEVEL: 0 DIFFERENT FILL-ORIGIN LEVEL: 0
STLB AVERAGE MISS LATENCY: 269.161 cycles
STLB RQ	ACCESS:   12128134	FORWARD:          0	MERGED:    6624403	TO_CACHE:    5503731

STLB Hit, L1D data hit: 0
STLB Hit, L2C data hit: 0
STLB Hit, LLC data hit: 0
STLB Hit, LLC data miss: 0
STLB STLB hints to L2: 0
L1D TOTAL     ACCESS:   14296439  HIT:    9783187  MISS:    4513252  HIT %:    68.4309  MISS %:    31.5691   MPKI: 22.5663
L1D LOAD      ACCESS:    6792364  HIT:    5536100  MISS:    1256264  HIT %:    81.5048  MISS %:    18.4952   MPKI: 6.28132
L1D RFO       ACCESS:    3705398  HIT:     719768  MISS:    2985630  HIT %:    19.4248  MISS %:    80.5752   MPKI: 14.9281
L1D PREFETCH  ACCESS:    3798677  HIT:    3527319  MISS:     271358  HIT %:    92.8565  MISS %:    7.14349   MPKI: 1.35679
L1D PREFETCH  REQUESTED:   28777394  ISSUED:   28723613  USEFUL:     271549  USELESS:        440
L1D USEFUL LOAD PREFETCHES:     271549 PREFETCH ISSUED TO LOWER LEVEL:    7469893  ACCURACY: 3.63525
L1D TIMELY PREFETCHES:     271549 LATE PREFETCHES: 18167 DROPPED PREFETCHES: 258169
L1D PREFETCHES SAME FILL-ORIGIN LEVEL: 290140 DIFFERENT FILL-ORIGIN LEVEL: 7179753
L1D AVERAGE MISS LATENCY: 981.647 cycles
L1D RQ	ACCESS:   22952363	FORWARD:          0	MERGED:   14008712	TO_CACHE:    8943645
L1D WQ	ACCESS:   42064896	FORWARD:          6	MERGED:          0	TO_CACHE:   42064896
L1D PQ	ACCESS:   16666499	FORWARD:          0	MERGED:    4609385	TO_CACHE:   12057114

L1D UNIQUE REGIONS ACCESSED: 0
L1D REGIONS CONFLICTS: 0
L1D Cross Page Prefetch Requests: 6027956
L1D Same Page Prefetch Requests: 39235985
L1D ROI Sum of L1D PQ occupancy: 513879803
L1D PREFETCHES PUSHED FROM L2C: 0
L1I TOTAL     ACCESS:   44467042  HIT:   44467033  MISS:          9  HIT %:        100  MISS %: 2.02397e-05   MPKI: 4.5e-05
L1I LOAD      ACCESS:   44467042  HIT:   44467033  MISS:          9  HIT %:        100  MISS %: 2.02397e-05   MPKI: 4.5e-05
L1I PREFETCH  REQUESTED:          0  ISSUED:          0  USEFUL:          0  USELESS:          0
L1I USEFUL LOAD PREFETCHES:          0 PREFETCH ISSUED TO LOWER LEVEL:          0  ACCURACY: -nan
L1I TIMELY PREFETCHES:          0 LATE PREFETCHES: 0 DROPPED PREFETCHES: 0
L1I PREFETCHES SAME FILL-ORIGIN LEVEL: 0 DIFFERENT FILL-ORIGIN LEVEL: 0
L1I AVERAGE MISS LATENCY: 2341.78 cycles
L1I RQ	ACCESS:   47247859	FORWARD:          0	MERGED:    2566778	TO_CACHE:   44681081

BTB TOTAL     ACCESS:   22603744  HIT:   22603691  MISS:         53  HIT %:    99.9998  MISS %: 0.000234474   MPKI: 0.000265
BTB BRANCH_DIRECT_JUMP	ACCESS:         28  HIT:         15  MISS:         13
BTB BRANCH_INDIRECT	ACCESS:          0  HIT:          0  MISS:          0
BTB BRANCH_CONDITIONAL	ACCESS:   22603708  HIT:   22603674  MISS:         34
BTB BRANCH_DIRECT_CALL	ACCESS:          4  HIT:          1  MISS:          3
BTB BRANCH_INDIRECT_CALL	ACCESS:          0  HIT:          0  MISS:          0
BTB BRANCH_RETURN	ACCESS:          4  HIT:          1  MISS:          3
BTB BRANCH_OTHER ACCESS:          0  HIT:          0  MISS:          0

L2C TOTAL     ACCESS:   10093685  HIT:    5266135  MISS:    4827550  HIT %:    52.1726  MISS %:    47.8274   MPKI: 24.1377
L2C LOAD      ACCESS:    1238178  HIT:     765074  MISS:     473104  HIT %:    61.7903  MISS %:    38.2097   MPKI: 2.36552
L2C DATA LOAD MPKI: 2.36547
L2C INSTRUCTION LOAD MPKI: 4.5e-05
L2C RFO       ACCESS:    2985630  HIT:          0  MISS:    2985630  HIT %:          0  MISS %:        100   MPKI: 14.9281
L2C PREFETCH  ACCESS:    2648316  HIT:    1594073  MISS:    1054243  HIT %:    60.1919  MISS %:    39.8081   MPKI: 5.27121
L2C DATA PREFETCH MPKI: 5.27121
L2C INSTRUCTION PREFETCH MPKI: 0
L2C WRITEBACK ACCESS:    2985847  HIT:    2680705  MISS:     305142  HIT %:    89.7804  MISS %:    10.2196   MPKI: 1.52571
L2C LOAD TRANSLATION ACCESS:      66680  HIT:      60648  MISS:       6032  HIT %:    90.9538  MISS %:    9.04619   MPKI: 0.03016
L2C TRANSLATION FROM L1D PREFETCHER ACCESS:     169034  HIT:     165635  MISS:       3399  HIT %:    97.9892  MISS %:    2.01084   MPKI: 0.016995
L2C PREFETCH  REQUESTED:          0  ISSUED:          0  USEFUL:     771550  USELESS:     290612
L2C USEFUL LOAD PREFETCHES:     771550 PREFETCH ISSUED TO LOWER LEVEL:    1416411  ACCURACY: 54.4722
L2C TIMELY PREFETCHES:     771550 LATE PREFETCHES: 358065 DROPPED PREFETCHES: 0
L2C PREFETCHES SAME FILL-ORIGIN LEVEL: 1283065 DIFFERENT FILL-ORIGIN LEVEL: 0
L2C AVERAGE MISS LATENCY: 1102.05 cycles
L2C RQ	ACCESS:    4489491	FORWARD:          0	MERGED:          0	TO_CACHE:    4489491
L2C WQ	ACCESS:    3011445	FORWARD:          0	MERGED:          0	TO_CACHE:    3011445
L2C PQ	ACCESS:    7469893	FORWARD:          0	MERGED:      84706	TO_CACHE:    7385187

L2C Instructions Evicting Data 9
L2C Translations Evicting Data 9498
L2C Data Evicting Data 4534173
L2C Instructions Evicting Instructions 0
L2C Translations Evicting Instructions 0
L2C Data Evicting Instructions 8
L2C Instructions Evicting Translations 0
L2C Translations Evicting Translations 7
L2C Data Evicting Translations 8947
L2C Dense regions hint from L2: 0
PSCL5 TOTAL     ACCESS:     235691  HIT:     235691  MISS:          0  HIT %:        100  MISS %:          0   MPKI: 0
PSCL5 LOAD TRANSLATION ACCESS:      66668  HIT:      66668  MISS:          0  HIT %:        100  MISS %:          0   MPKI: 0
PSCL5 TRANSLATION FROM L1D PREFETCHER ACCESS:     169023  HIT:     169023  MISS:          0  HIT %:        100  MISS %:          0   MPKI: 0
PSCL5 PREFETCH  REQUESTED:          0  ISSUED:          0  USEFUL:          0  USELESS:          0
PSCL5 USEFUL LOAD PREFETCHES:          0 PREFETCH ISSUED TO LOWER LEVEL:          0  ACCURACY: -nan
PSCL5 TIMELY PREFETCHES:          0 LATE PREFETCHES: 0 DROPPED PREFETCHES: 0
PSCL5 PREFETCHES SAME FILL-ORIGIN LEVEL: 0 DIFFERENT FILL-ORIGIN LEVEL: 0

PSCL4 TOTAL     ACCESS:     235691  HIT:     235691  MISS:          0  HIT %:        100  MISS %:          0   MPKI: 0
PSCL4 LOAD TRANSLATION ACCESS:      66668  HIT:      66668  MISS:          0  HIT %:        100  MISS %:          0   MPKI: 0
PSCL4 TRANSLATION FROM L1D PREFETCHER ACCESS:     169023  HIT:     169023  MISS:          0  HIT %:        100  MISS %:          0   MPKI: 0
PSCL4 PREFETCH  REQUESTED:          0  ISSUED:          0  USEFUL:          0  USELESS:          0
PSCL4 USEFUL LOAD PREFETCHES:          0 PREFETCH ISSUED TO LOWER LEVEL:          0  ACCURACY: -nan
PSCL4 TIMELY PREFETCHES:          0 LATE PREFETCHES: 0 DROPPED PREFETCHES: 0
PSCL4 PREFETCHES SAME FILL-ORIGIN LEVEL: 0 DIFFERENT FILL-ORIGIN LEVEL: 0

PSCL3 TOTAL     ACCESS:     235691  HIT:     235691  MISS:          0  HIT %:        100  MISS %:          0   MPKI: 0
PSCL3 LOAD TRANSLATION ACCESS:      66668  HIT:      66668  MISS:          0  HIT %:        100  MISS %:          0   MPKI: 0
PSCL3 TRANSLATION FROM L1D PREFETCHER ACCESS:     169023  HIT:     169023  MISS:          0  HIT %:        100  MISS %:          0   MPKI: 0
PSCL3 PREFETCH  REQUESTED:          0  ISSUED:          0  USEFUL:          0  USELESS:          0
PSCL3 USEFUL LOAD PREFETCHES:          0 PREFETCH ISSUED TO LOWER LEVEL:          0  ACCURACY: -nan
PSCL3 TIMELY PREFETCHES:          0 LATE PREFETCHES: 0 DROPPED PREFETCHES: 0
PSCL3 PREFETCHES SAME FILL-ORIGIN LEVEL: 0 DIFFERENT FILL-ORIGIN LEVEL: 0

PSCL2 TOTAL     ACCESS:     235594  HIT:     235441  MISS:        153  HIT %:    99.9351  MISS %:  0.0649422   MPKI: 0.000765
PSCL2 LOAD TRANSLATION ACCESS:      66679  HIT:      66526  MISS:        153  HIT %:    99.7705  MISS %:   0.229458   MPKI: 0.000765
PSCL2 TRANSLATION FROM L1D PREFETCHER ACCESS:     168915  HIT:     168915  MISS:          0  HIT %:        100  MISS %:          0   MPKI: 0
PSCL2 PREFETCH  REQUESTED:          0  ISSUED:          0  USEFUL:          0  USELESS:          0
PSCL2 USEFUL LOAD PREFETCHES:          0 PREFETCH ISSUED TO LOWER LEVEL:          0  ACCURACY: -nan
PSCL2 TIMELY PREFETCHES:          0 LATE PREFETCHES: 0 DROPPED PREFETCHES: 0
PSCL2 PREFETCHES SAME FILL-ORIGIN LEVEL: 0 DIFFERENT FILL-ORIGIN LEVEL: 0

LLC TOTAL     ACCESS:    7510560  HIT:    2895074  MISS:    4615486  HIT %:    38.5467  MISS %:    61.4533   MPKI: 23.0774
LLC LOAD      ACCESS:     115258  HIT:         14  MISS:     115244  HIT %:  0.0121467  MISS %:    99.9879   MPKI: 0.57622
LLC RFO       ACCESS:    2985630  HIT:          0  MISS:    2985630  HIT %:          0  MISS %:        100   MPKI: 14.9281
LLC PREFETCH  ACCESS:    1412089  HIT:        146  MISS:    1411943  HIT %:  0.0103393  MISS %:    99.9897   MPKI: 7.05971
LLC WRITEBACK ACCESS:    2988152  HIT:    2894476  MISS:      93676  HIT %:    96.8651  MISS %:    3.13491   MPKI: 0.46838
LLC LOAD TRANSLATION ACCESS:       6032  HIT:         17  MISS:       6015  HIT %:    0.28183  MISS %:    99.7182   MPKI: 0.030075
LLC TRANSLATION FROM L1D PREFETCHER ACCESS:       3399  HIT:        421  MISS:       2978  HIT %:     12.386  MISS %:     87.614   MPKI: 0.01489
LLC PREFETCH  REQUESTED:          0  ISSUED:          0  USEFUL:        733  USELESS:    5654710
LLC USEFUL LOAD PREFETCHES:        733 PREFETCH ISSUED TO LOWER LEVEL:  124261004  ACCURACY: 0.000589887
LLC TIMELY PREFETCHES:        733 LATE PREFETCHES: 0 DROPPED PREFETCHES: 0
LLC PREFETCHES SAME FILL-ORIGIN LEVEL: 0 DIFFERENT FILL-ORIGIN LEVEL: 0
LLC AVERAGE MISS LATENCY: 4647.08 cycles
LLC RQ	ACCESS:   12500274	FORWARD:          0	MERGED:          0	TO_CACHE:   12500274
LLC WQ	ACCESS:   12003302	FORWARD:          0	MERGED:          0	TO_CACHE:   12003302
LLC PQ	ACCESS:    5655356	FORWARD:          0	MERGED:          0	TO_CACHE:    5655356

LLC Dense regions hint to LLC: 0

RAW hits: 21
Loads Generated: 22813198
Loads sent to L1D: 22813177
Stores Generated: 41926581
Stores sent to L1D: 41926581
Major fault: 0 Minor fault: 89627
Allocated PAGES: 358508

CPU 2 cumulative IPC: 0.375813 instructions: 200000002 cycles: 532179084
ITLB TOTAL     ACCESS:   25221137  HIT:   25221137  MISS:          0  HIT %:        100  MISS %:          0   MPKI: 0
ITLB LOAD TRANSLATION ACCESS:   25221137  HIT:   25221137  MISS:          0  HIT %:        100  MISS %:          0   MPKI: 0
ITLB PREFETCH  REQUESTED:          0  ISSUED:          0  USEFUL:          0  USELESS:          0
ITLB USEFUL LOAD PREFETCHES:          0 PREFETCH ISSUED TO LOWER LEVEL:          0  ACCURACY: -nan
ITLB TIMELY PREFETCHES:          0 LATE PREFETCHES: 0 DROPPED PREFETCHES: 0
ITLB PREFETCHES SAME FILL-ORIGIN LEVEL: 0 DIFFERENT FILL-ORIGIN LEVEL: 0
ITLB AVERAGE MISS LATENCY: -nan cycles
ITLB RQ	ACCESS:   44604973	FORWARD:          0	MERGED:   19250871	TO_CACHE:   25354102

DTLB TOTAL     ACCESS:   29476816  HIT:   29406279  MISS:      70537  HIT %:    99.7607  MISS %:   0.239297   MPKI: 0.352685
DTLB LOAD TRANSLATION ACCESS:   29476816  HIT:   29406279  MISS:      70537  HIT %:    99.7607  MISS %:   0.239297   MPKI: 0.352685
DTLB PREFETCH  REQUESTED:          0  ISSUED:          0  USEFUL:          0  USELESS:          0
DTLB USEFUL LOAD PREFETCHES:          0 PREFETCH ISSUED TO LOWER LEVEL:          0  ACCURACY: -nan
DTLB TIMELY PREFETCHES:          0 LATE PREFETCHES: 0 DROPPED PREFETCHES: 0
DTLB PREFETCHES SAME FILL-ORIGIN LEVEL: 0 DIFFERENT FILL-ORIGIN LEVEL: 0
DTLB AVERAGE MISS LATENCY: 262.986 cycles
DTLB RQ	ACCESS:   50939763	FORWARD:          0	MERGED:   21053994	TO_CACHE:   29885769

STLB TOTAL     ACCESS:    5289340  HIT:    5218803  MISS:      70537  HIT %:    98.6664  MISS %:    1.33357   MPKI: 0.352685
STLB LOAD TRANSLATION ACCESS:      70537  HIT:       3859  MISS:      66678  HIT %:    5.47089  MISS %:    94.5291   MPKI: 0.33339
STLB TRANSLATION FROM L1D PREFETCHER ACCESS:    5218803  HIT:    5214944  MISS:       3859  HIT %:    99.9261  MISS %:  0.0739442   MPKI: 0.019295
STLB PREFETCH  REQUESTED:          0  ISSUED:          0  USEFUL:       3901  USELESS:          0
STLB USEFUL LOAD PREFETCHES:       3901 PREFETCH ISSUED TO LOWER LEVEL:          0  ACCURACY: inf
STLB TIMELY PREFETCHES:       3901 LATE PREFETCHES: 5055 DROPPED PREFETCHES: 160739
STLB PREFETCHES SAME FILL-ORIGIN LEVEL: 0 DIFFERENT FILL-ORIGIN LEVEL: 0
STLB AVERAGE MISS LATENCY: 266.822 cycles
STLB RQ	ACCESS:   12133765	FORWARD:          0	MERGED:    6632914	TO_CACHE:    5500851

STLB Hit, L1D data hit: 0
STLB Hit, L2C data hit: 0
STLB Hit, LLC data hit: 0
STLB Hit, LLC data miss: 0
STLB STLB hints to L2: 0
L1D TOTAL     ACCESS:   14295302  HIT:    9782210  MISS:    4513092  HIT %:    68.4295  MISS %:    31.5705   MPKI: 22.5655
L1D LOAD      ACCESS:    6789274  HIT:    5533408  MISS:    1255866  HIT %:    81.5022  MISS %:    18.4978   MPKI: 6.27933
L1D RFO       ACCESS:    3708682  HIT:     723051  MISS:    2985631  HIT %:    19.4962  MISS %:    80.5038   MPKI: 14.9282
L1D PREFETCH  ACCESS:    3797346  HIT:    3525751  MISS:     271595  HIT %:    92.8478  MISS %:    7.15223   MPKI: 1.35797
L1D PREFETCH  REQUESTED:   28774581  ISSUED:   28717166  USEFUL:     271662  USELESS:        279
L1D USEFUL LOAD PREFETCHES:     271662 PREFETCH ISSUED TO LOWER LEVEL:    7467856  ACCURACY: 3.63775
L1D TIMELY PREFETCHES:     271662 LATE PREFETCHES: 18464 DROPPED PREFETCHES: 259951
L1D PREFETCHES SAME FILL-ORIGIN LEVEL: 290389 DIFFERENT FILL-ORIGIN LEVEL: 7177467
L1D AVERAGE MISS LATENCY: 979.272 cycles
L1D RQ	ACCESS:   22899857	FORWARD:          0	MERGED:   13972478	TO_CACHE:    8927373
L1D WQ	ACCESS:   42012390	FORWARD:          6	MERGED:          0	TO_CACHE:   42012390
L1D PQ	ACCESS:   16654242	FORWARD:          0	MERGED:    4591318	TO_CACHE:   12062924

L1D UNIQUE REGIONS ACCESSED: 0
L1D REGIONS CONFLICTS: 0
L1D Cross Page Prefetch Requests: 15155351
L1D Same Page Prefetch Requests: 39202604
L1D ROI Sum of L1D PQ occupancy: 508483109
L1D PREFETCHES PUSHED FROM L2C: 0
L1I TOTAL     ACCESS:   44471343  HIT:   44471334  MISS:          9  HIT %:        100  MISS %: 2.02378e-05   MPKI: 4.5e-05
L1I LOAD      ACCESS:   44471343  HIT:   44471334  MISS:          9  HIT %:        100  MISS %: 2.02378e-05   MPKI: 4.5e-05
L1I PREFETCH  REQUESTED:          0  ISSUED:          0  USEFUL:          0  USELESS:          0
L1I USEFUL LOAD PREFETCHES:          0 PREFETCH ISSUED TO LOWER LEVEL:          0  ACCURACY: -nan
L1I TIMELY PREFETCHES:          0 LATE PREFETCHES: 0 DROPPED PREFETCHES: 0
L1I PREFETCHES SAME FILL-ORIGIN LEVEL: 0 DIFFERENT FILL-ORIGIN LEVEL: 0
L1I AVERAGE MISS LATENCY: 2683 cycles
L1I RQ	ACCESS:   47168590	FORWARD:          0	MERGED:    2563617	TO_CACHE:   44604973

BTB TOTAL     ACCESS:   22603744  HIT:   22603691  MISS:         53  HIT %:    99.9998  MISS %: 0.000234474   MPKI: 0.000265
BTB BRANCH_DIRECT_JUMP	ACCESS:         27  HIT:         14  MISS:         13
BTB BRANCH_INDIRECT	ACCESS:          0  HIT:          0  MISS:          0
BTB BRANCH_CONDITIONAL	ACCESS:   22603709  HIT:   22603675  MISS:         34
BTB BRANCH_DIRECT_CALL	ACCESS:          4  HIT:          1  MISS:          3
BTB BRANCH_INDIRECT_CALL	ACCESS:          0  HIT:          0  MISS:          0
BTB BRANCH_RETURN	ACCESS:          4  HIT:          1  MISS:          3
BTB BRANCH_OTHER ACCESS:          0  HIT:          0  MISS:          0

L2C TOTAL     ACCESS:   10107233  HIT:    5278881  MISS:    4828352  HIT %:    52.2287  MISS %:    47.7713   MPKI: 24.1418
L2C LOAD      ACCESS:    1237446  HIT:     763897  MISS:     473549  HIT %:    61.7317  MISS %:    38.2683   MPKI: 2.36774
L2C DATA LOAD MPKI: 2.3677
L2C INSTRUCTION LOAD MPKI: 4.5e-05
L2C RFO       ACCESS:    2985631  HIT:          0  MISS:    2985631  HIT %:          0  MISS %:        100   MPKI: 14.9282
L2C PREFETCH  ACCESS:    2661973  HIT:    1608203  MISS:    1053770  HIT %:    60.4139  MISS %:    39.5861   MPKI: 5.26885
L2C DATA PREFETCH MPKI: 5.26885
L2C INSTRUCTION PREFETCH MPKI: 0
L2C WRITEBACK ACCESS:    2985841  HIT:    2679873  MISS:     305968  HIT %:    89.7527  MISS %:    10.2473   MPKI: 1.52984
L2C LOAD TRANSLATION ACCESS:      66679  HIT:      60617  MISS:       6062  HIT %:    90.9087  MISS %:    9.09132   MPKI: 0.03031
L2C TRANSLATION FROM L1D PREFETCHER ACCESS:     169663  HIT:     166291  MISS:       3372  HIT %:    98.0125  MISS %:    1.98747   MPKI: 0.01686
L2C PREFETCH  REQUESTED:          0  ISSUED:          0  USEFUL:     769101  USELESS:     290941
L2C USEFUL LOAD PREFETCHES:     769101 PREFETCH ISSUED TO LOWER LEVEL:    1414286  ACCURACY: 54.3809
L2C TIMELY PREFETCHES:     769101 LATE PREFETCHES: 357964 DROPPED PREFETCHES: 0
L2C PREFETCHES SAME FILL-ORIGIN LEVEL: 1278605 DIFFERENT FILL-ORIGIN LEVEL: 0
L2C AVERAGE MISS LATENCY: 1098.88 cycles
L2C RQ	ACCESS:    4478035	FORWARD:          0	MERGED:          0	TO_CACHE:    4478035
L2C WQ	ACCESS:    3001596	FORWARD:          0	MERGED:          0	TO_CACHE:    3001596
L2C PQ	ACCESS:    7467846	FORWARD:          0	MERGED:      84666	TO_CACHE:    7383180

L2C Instructions Evicting Data 9
L2C Translations Evicting Data 9465
L2C Data Evicting Data 4522698
L2C Instructions Evicting Instructions 0
L2C Translations Evicting Instructions 0
L2C Data Evicting Instructions 6
L2C Instructions Evicting Translations 0
L2C Translations Evicting Translations 20
L2C Data Evicting Translations 8896
L2C Dense regions hint from L2: 0
PSCL5 TOTAL     ACCESS:     236320  HIT:     236320  MISS:          0  HIT %:        100  MISS %:          0   MPKI: 0
PSCL5 LOAD TRANSLATION ACCESS:      66668  HIT:      66668  MISS:          0  HIT %:        100  MISS %:          0   MPKI: 0
PSCL5 TRANSLATION FROM L1D PREFETCHER ACCESS:     169652  HIT:     169652  MISS:          0  HIT %:        100  MISS %:          0   MPKI: 0
PSCL5 PREFETCH  REQUESTED:          0  ISSUED:          0  USEFUL:          0  USELESS:          0
PSCL5 USEFUL LOAD PREFETCHES:          0 PREFETCH ISSUED TO LOWER LEVEL:          0  ACCURACY: -nan
PSCL5 TIMELY PREFETCHES:          0 LATE PREFETCHES: 0 DROPPED PREFETCHES: 0
PSCL5 PREFETCHES SAME FILL-ORIGIN LEVEL: 0 DIFFERENT FILL-ORIGIN LEVEL: 0

PSCL4 TOTAL     ACCESS:     236320  HIT:     236320  MISS:          0  HIT %:        100  MISS %:          0   MPKI: 0
PSCL4 LOAD TRANSLATION ACCESS:      66668  HIT:      66668  MISS:          0  HIT %:        100  MISS %:          0   MPKI: 0
PSCL4 TRANSLATION FROM L1D PREFETCHER ACCESS:     169652  HIT:     169652  MISS:          0  HIT %:        100  MISS %:          0   MPKI: 0
PSCL4 PREFETCH  REQUESTED:          0  ISSUED:          0  USEFUL:          0  USELESS:          0
PSCL4 USEFUL LOAD PREFETCHES:          0 PREFETCH ISSUED TO LOWER LEVEL:          0  ACCURACY: -nan
PSCL4 TIMELY PREFETCHES:          0 LATE PREFETCHES: 0 DROPPED PREFETCHES: 0
PSCL4 PREFETCHES SAME FILL-ORIGIN LEVEL: 0 DIFFERENT FILL-ORIGIN LEVEL: 0

PSCL3 TOTAL     ACCESS:     236320  HIT:     236320  MISS:          0  HIT %:        100  MISS %:          0   MPKI: 0
PSCL3 LOAD TRANSLATION ACCESS:      66668  HIT:      66668  MISS:          0  HIT %:        100  MISS %:          0   MPKI: 0
PSCL3 TRANSLATION FROM L1D PREFETCHER ACCESS:     169652  HIT:     169652  MISS:          0  HIT %:        100  MISS %:          0   MPKI: 0
PSCL3 PREFETCH  REQUESTED:          0  ISSUED:          0  USEFUL:          0  USELESS:          0
PSCL3 USEFUL LOAD PREFETCHES:          0 PREFETCH ISSUED TO LOWER LEVEL:          0  ACCURACY: -nan
PSCL3 TIMELY PREFETCHES:          0 LATE PREFETCHES: 0 DROPPED PREFETCHES: 0
PSCL3 PREFETCHES SAME FILL-ORIGIN LEVEL: 0 DIFFERENT FILL-ORIGIN LEVEL: 0

PSCL2 TOTAL     ACCESS:     236184  HIT:     236032  MISS:        152  HIT %:    99.9356  MISS %:  0.0643566   MPKI: 0.00076
PSCL2 LOAD TRANSLATION ACCESS:      66678  HIT:      66526  MISS:        152  HIT %:     99.772  MISS %:   0.227961   MPKI: 0.00076
PSCL2 TRANSLATION FROM L1D PREFETCHER ACCESS:     169506  HIT:     169506  MISS:          0  HIT %:        100  MISS %:          0   MPKI: 0
PSCL2 PREFETCH  REQUESTED:          0  ISSUED:          0  USEFUL:          0  USELESS:          0
PSCL2 USEFUL LOAD PREFETCHES:          0 PREFETCH ISSUED TO LOWER LEVEL:          0  ACCURACY: -nan
PSCL2 TIMELY PREFETCHES:          0 LATE PREFETCHES: 0 DROPPED PREFETCHES: 0
PSCL2 PREFETCHES SAME FILL-ORIGIN LEVEL: 0 DIFFERENT FILL-ORIGIN LEVEL: 0

LLC TOTAL     ACCESS:    7510592  HIT:    2894981  MISS:    4615611  HIT %:    38.5453  MISS %:    61.4547   MPKI: 23.0781
LLC LOAD      ACCESS:     115709  HIT:         11  MISS:     115698  HIT %: 0.00950661  MISS %:    99.9905   MPKI: 0.57849
LLC RFO       ACCESS:    2985631  HIT:          0  MISS:    2985631  HIT %:          0  MISS %:        100   MPKI: 14.9282
LLC PREFETCH  ACCESS:    1411610  HIT:        131  MISS:    1411479  HIT %: 0.00928018  MISS %:    99.9907   MPKI: 7.05739
LLC WRITEBACK ACCESS:    2988208  HIT:    2894384  MISS:      93824  HIT %:    96.8602  MISS %:    3.13981   MPKI: 0.46912
LLC LOAD TRANSLATION ACCESS:       6062  HIT:         22  MISS:       6040  HIT %:   0.362917  MISS %:    99.6371   MPKI: 0.0302
LLC TRANSLATION FROM L1D PREFETCHER ACCESS:       3372  HIT:        433  MISS:       2939  HIT %:     12.841  MISS %:     87.159   MPKI: 0.014695
LLC PREFETCH  REQUESTED:          0  ISSUED:          0  USEFUL:        733  USELESS:    5654710
LLC USEFUL LOAD PREFETCHES:        733 PREFETCH ISSUED TO LOWER LEVEL:  124261004  ACCURACY: 0.000589887
LLC TIMELY PREFETCHES:        733 LATE PREFETCHES: 0 DROPPED PREFETCHES: 0
LLC PREFETCHES SAME FILL-ORIGIN LEVEL: 0 DIFFERENT FILL-ORIGIN LEVEL: 0
LLC AVERAGE MISS LATENCY: 4646.96 cycles
LLC RQ	ACCESS:   12500274	FORWARD:          0	MERGED:          0	TO_CACHE:   12500274
LLC WQ	ACCESS:   12003302	FORWARD:          0	MERGED:          0	TO_CACHE:   12003302
LLC PQ	ACCESS:    5655356	FORWARD:          0	MERGED:          0	TO_CACHE:    5655356

LLC Dense regions hint to LLC: 0

RAW hits: 21
Loads Generated: 22813202
Loads sent to L1D: 22813181
Stores Generated: 41926587
Stores sent to L1D: 41926586
Major fault: 0 Minor fault: 89627
Allocated PAGES: 358508

CPU 3 cumulative IPC: 0.375713 instructions: 200000001 cycles: 532321110
ITLB TOTAL     ACCESS:   25219619  HIT:   25219619  MISS:          0  HIT %:        100  MISS %:          0   MPKI: 0
ITLB LOAD TRANSLATION ACCESS:   25219619  HIT:   25219619  MISS:          0  HIT %:        100  MISS %:          0   MPKI: 0
ITLB PREFETCH  REQUESTED:          0  ISSUED:          0  USEFUL:          0  USELESS:          0
ITLB USEFUL LOAD PREFETCHES:          0 PREFETCH ISSUED TO LOWER LEVEL:          0  ACCURACY: -nan
ITLB TIMELY PREFETCHES:          0 LATE PREFETCHES: 0 DROPPED PREFETCHES: 0
ITLB PREFETCHES SAME FILL-ORIGIN LEVEL: 0 DIFFERENT FILL-ORIGIN LEVEL: 0
ITLB AVERAGE MISS LATENCY: -nan cycles
ITLB RQ	ACCESS:   44591085	FORWARD:          0	MERGED:   19250827	TO_CACHE:   25340258

DTLB TOTAL     ACCESS:   29482722  HIT:   29412187  MISS:      70535  HIT %:    99.7608  MISS %:   0.239242   MPKI: 0.352675
DTLB LOAD TRANSLATION ACCESS:   29482722  HIT:   29412187  MISS:      70535  HIT %:    99.7608  MISS %:   0.239242   MPKI: 0.352675
DTLB PREFETCH  REQUESTED:          0  ISSUED:          0  USEFUL:          0  USELESS:          0
DTLB USEFUL LOAD PREFETCHES:          0 PREFETCH ISSUED TO LOWER LEVEL:          0  ACCURACY: -nan
DTLB TIMELY PREFETCHES:          0 LATE PREFETCHES: 0 DROPPED PREFETCHES: 0
DTLB PREFETCHES SAME FILL-ORIGIN LEVEL: 0 DIFFERENT FILL-ORIGIN LEVEL: 0
DTLB AVERAGE MISS LATENCY: 266.165 cycles
DTLB RQ	ACCESS:   50936302	FORWARD:          0	MERGED:   21049778	TO_CACHE:   29886524

STLB TOTAL     ACCESS:    5290728  HIT:    5220193  MISS:      70535  HIT %:    98.6668  MISS %:    1.33318   MPKI: 0.352675
STLB LOAD TRANSLATION ACCESS:      70535  HIT:       3860  MISS:      66675  HIT %:    5.47246  MISS %:    94.5275   MPKI: 0.333375
STLB TRANSLATION FROM L1D PREFETCHER ACCESS:    5220193  HIT:    5216333  MISS:       3860  HIT %:    99.9261  MISS %:  0.0739436   MPKI: 0.0193
STLB PREFETCH  REQUESTED:          0  ISSUED:          0  USEFUL:       3898  USELESS:          0
STLB USEFUL LOAD PREFETCHES:       3898 PREFETCH ISSUED TO LOWER LEVEL:          0  ACCURACY: inf
STLB TIMELY PREFETCHES:       3898 LATE PREFETCHES: 5086 DROPPED PREFETCHES: 162466
STLB PREFETCHES SAME FILL-ORIGIN LEVEL: 0 DIFFERENT FILL-ORIGIN LEVEL: 0
STLB AVERAGE MISS LATENCY: 270.101 cycles
STLB RQ	ACCESS:   12032475	FORWARD:          0	MERGED:    6528787	TO_CACHE:    5503688

STLB Hit, L1D data hit: 0
STLB Hit, L2C data hit: 0
STLB Hit, LLC data hit: 0
STLB Hit, LLC data miss: 0
STLB STLB hints to L2: 0
L1D TOTAL     ACCESS:   14307517  HIT:    9794374  MISS:    4513143  HIT %:    68.4561  MISS %:    31.5439   MPKI: 22.5657
L1D LOAD      ACCESS:    6793575  HIT:    5536889  MISS:    1256686  HIT %:    81.5018  MISS %:    18.4982   MPKI: 6.28343
L1D RFO       ACCESS:    3705296  HIT:     719675  MISS:    2985621  HIT %:    19.4229  MISS %:    80.5771   MPKI: 14.9281
L1D PREFETCH  ACCESS:    3808646  HIT:    3537810  MISS:     270836  HIT %:    92.8889  MISS %:    7.11108   MPKI: 1.35418
L1D PREFETCH  REQUESTED:   28561712  ISSUED:   28511069  USEFUL:     270807  USELESS:        345
L1D USEFUL LOAD PREFETCHES:     270807 PREFETCH ISSUED TO LOWER LEVEL:    7378931  ACCURACY: 3.67
L1D TIMELY PREFETCHES:     270807 LATE PREFETCHES: 17317 DROPPED PREFETCHES: 262106
L1D PREFETCHES SAME FILL-ORIGIN LEVEL: 288453 DIFFERENT FILL-ORIGIN LEVEL: 7090478
L1D AVERAGE MISS LATENCY: 978.607 cycles
L1D RQ	ACCESS:   22891807	FORWARD:          0	MERGED:   13959851	TO_CACHE:    8931950
L1D WQ	ACCESS:   42004352	FORWARD:          6	MERGED:          0	TO_CACHE:   42004352
L1D PQ	ACCESS:   16549408	FORWARD:          0	MERGED:    4587747	TO_CACHE:   11961661

L1D UNIQUE REGIONS ACCESSED: 0
L1D REGIONS CONFLICTS: 0
L1D Cross Page Prefetch Requests: 12892971
L1D Same Page Prefetch Requests: 39113371
L1D ROI Sum of L1D PQ occupancy: 506919699
L1D PREFETCHES PUSHED FROM L2C: 0
L1I TOTAL     ACCESS:   44469834  HIT:   44469825  MISS:          9  HIT %:        100  MISS %: 2.02384e-05   MPKI: 4.5e-05
L1I LOAD      ACCESS:   44469834  HIT:   44469825  MISS:          9  HIT %:        100  MISS %: 2.02384e-05   MPKI: 4.5e-05
L1I PREFETCH  REQUESTED:          0  ISSUED:          0  USEFUL:          0  USELESS:          0
L1I USEFUL LOAD PREFETCHES:          0 PREFETCH ISSUED TO LOWER LEVEL:          0  ACCURACY: -nan
L1I TIMELY PREFETCHES:          0 LATE PREFETCHES: 0 DROPPED PREFETCHES: 0
L1I PREFETCHES SAME FILL-ORIGIN LEVEL: 0 DIFFERENT FILL-ORIGIN LEVEL: 0
L1I AVERAGE MISS LATENCY: 1539.11 cycles
L1I RQ	ACCESS:   47153036	FORWARD:          0	MERGED:    2561951	TO_CACHE:   44591085

BTB TOTAL     ACCESS:   22603717  HIT:   22603668  MISS:         49  HIT %:    99.9998  MISS %: 0.000216779   MPKI: 0.000245
BTB BRANCH_DIRECT_JUMP	ACCESS:         21  HIT:          9  MISS:         12
BTB BRANCH_INDIRECT	ACCESS:          0  HIT:          0  MISS:          0
BTB BRANCH_CONDITIONAL	ACCESS:   22603688  HIT:   22603657  MISS:         31
BTB BRANCH_DIRECT_CALL	ACCESS:          4  HIT:          1  MISS:          3
BTB BRANCH_INDIRECT_CALL	ACCESS:          0  HIT:          0  MISS:          0
BTB BRANCH_RETURN	ACCESS:          4  HIT:          1  MISS:          3
BTB BRANCH_OTHER ACCESS:          0  HIT:          0  MISS:          0

L2C TOTAL     ACCESS:   10021709  HIT:    5189945  MISS:    4831764  HIT %:     51.787  MISS %:     48.213   MPKI: 24.1588
L2C LOAD      ACCESS:    1239417  HIT:     764625  MISS:     474792  HIT %:    61.6923  MISS %:    38.3077   MPKI: 2.37396
L2C DATA LOAD MPKI: 2.37391
L2C INSTRUCTION LOAD MPKI: 4.5e-05
L2C RFO       ACCESS:    2985624  HIT:          0  MISS:    2985624  HIT %:          0  MISS %:        100   MPKI: 14.9281
L2C PREFETCH  ACCESS:    2572733  HIT:    1520172  MISS:    1052561  HIT %:    59.0878  MISS %:    40.9122   MPKI: 5.2628
L2C DATA PREFETCH MPKI: 5.2628
L2C INSTRUCTION PREFETCH MPKI: 0
L2C WRITEBACK ACCESS:    2985839  HIT:    2676503  MISS:     309336  HIT %:    89.6399  MISS %:    10.3601   MPKI: 1.54668
L2C LOAD TRANSLATION ACCESS:      66674  HIT:      60625  MISS:       6049  HIT %:    90.9275  MISS %:     9.0725   MPKI: 0.030245
L2C TRANSLATION FROM L1D PREFETCHER ACCESS:     171422  HIT:     168020  MISS:       3402  HIT %:    98.0154  MISS %:    1.98458   MPKI: 0.01701
L2C PREFETCH  REQUESTED:          0  ISSUED:          0  USEFUL:     769627  USELESS:     288985
L2C USEFUL LOAD PREFETCHES:     769627 PREFETCH ISSUED TO LOWER LEVEL:    1413272  ACCURACY: 54.4571
L2C TIMELY PREFETCHES:     769627 LATE PREFETCHES: 358363 DROPPED PREFETCHES: 0
L2C PREFETCHES SAME FILL-ORIGIN LEVEL: 1278148 DIFFERENT FILL-ORIGIN LEVEL: 0
L2C AVERAGE MISS LATENCY: 1096.72 cycles
L2C RQ	ACCESS:    4480006	FORWARD:          0	MERGED:          0	TO_CACHE:    4480006
L2C WQ	ACCESS:    3000084	FORWARD:          0	MERGED:          0	TO_CACHE:    3000084
L2C PQ	ACCESS:    7378931	FORWARD:          0	MERGED:      85156	TO_CACHE:    7293775

L2C Instructions Evicting Data 9
L2C Translations Evicting Data 9485
L2C Data Evicting Data 4520964
L2C Instructions Evicting Instructions 0
L2C Translations Evicting Instructions 0
L2C Data Evicting Instructions 8
L2C Instructions Evicting Translations 0
L2C Translations Evicting Translations 18
L2C Data Evicting Translations 8922
L2C Dense regions hint from L2: 0
PSCL5 TOTAL     ACCESS:     238076  HIT:     238076  MISS:          0  HIT %:        100  MISS %:          0   MPKI: 0
PSCL5 LOAD TRANSLATION ACCESS:      66665  HIT:      66665  MISS:          0  HIT %:        100  MISS %:          0   MPKI: 0
PSCL5 TRANSLATION FROM L1D PREFETCHER ACCESS:     171411  HIT:     171411  MISS:          0  HIT %:        100  MISS %:          0   MPKI: 0
PSCL5 PREFETCH  REQUESTED:          0  ISSUED:          0  USEFUL:          0  USELESS:          0
PSCL5 USEFUL LOAD PREFETCHES:          0 PREFETCH ISSUED TO LOWER LEVEL:          0  ACCURACY: -nan
PSCL5 TIMELY PREFETCHES:          0 LATE PREFETCHES: 0 DROPPED PREFETCHES: 0
PSCL5 PREFETCHES SAME FILL-ORIGIN LEVEL: 0 DIFFERENT FILL-ORIGIN LEVEL: 0

PSCL4 TOTAL     ACCESS:     238076  HIT:     238076  MISS:          0  HIT %:        100  MISS %:          0   MPKI: 0
PSCL4 LOAD TRANSLATION ACCESS:      66665  HIT:      66665  MISS:          0  HIT %:        100  MISS %:          0   MPKI: 0
PSCL4 TRANSLATION FROM L1D PREFETCHER ACCESS:     171411  HIT:     171411  MISS:          0  HIT %:        100  MISS %:          0   MPKI: 0
PSCL4 PREFETCH  REQUESTED:          0  ISSUED:          0  USEFUL:          0  USELESS:          0
PSCL4 USEFUL LOAD PREFETCHES:          0 PREFETCH ISSUED TO LOWER LEVEL:          0  ACCURACY: -nan
PSCL4 TIMELY PREFETCHES:          0 LATE PREFETCHES: 0 DROPPED PREFETCHES: 0
PSCL4 PREFETCHES SAME FILL-ORIGIN LEVEL: 0 DIFFERENT FILL-ORIGIN LEVEL: 0

PSCL3 TOTAL     ACCESS:     238076  HIT:     238076  MISS:          0  HIT %:        100  MISS %:          0   MPKI: 0
PSCL3 LOAD TRANSLATION ACCESS:      66665  HIT:      66665  MISS:          0  HIT %:        100  MISS %:          0   MPKI: 0
PSCL3 TRANSLATION FROM L1D PREFETCHER ACCESS:     171411  HIT:     171411  MISS:          0  HIT %:        100  MISS %:          0   MPKI: 0
PSCL3 PREFETCH  REQUESTED:          0  ISSUED:          0  USEFUL:          0  USELESS:          0
PSCL3 USEFUL LOAD PREFETCHES:          0 PREFETCH ISSUED TO LOWER LEVEL:          0  ACCURACY: -nan
PSCL3 TIMELY PREFETCHES:          0 LATE PREFETCHES: 0 DROPPED PREFETCHES: 0
PSCL3 PREFETCHES SAME FILL-ORIGIN LEVEL: 0 DIFFERENT FILL-ORIGIN LEVEL: 0

PSCL2 TOTAL     ACCESS:     237974  HIT:     237824  MISS:        150  HIT %:     99.937  MISS %:  0.0630321   MPKI: 0.00075
PSCL2 LOAD TRANSLATION ACCESS:      66676  HIT:      66526  MISS:        150  HIT %:     99.775  MISS %:   0.224969   MPKI: 0.00075
PSCL2 TRANSLATION FROM L1D PREFETCHER ACCESS:     171298  HIT:     171298  MISS:          0  HIT %:        100  MISS %:          0   MPKI: 0
PSCL2 PREFETCH  REQUESTED:          0  ISSUED:          0  USEFUL:          0  USELESS:          0
PSCL2 USEFUL LOAD PREFETCHES:          0 PREFETCH ISSUED TO LOWER LEVEL:          0  ACCURACY: -nan
PSCL2 TIMELY PREFETCHES:          0 LATE PREFETCHES: 0 DROPPED PREFETCHES: 0
PSCL2 PREFETCHES SAME FILL-ORIGIN LEVEL: 0 DIFFERENT FILL-ORIGIN LEVEL: 0

LLC TOTAL     ACCESS:    7510651  HIT:    2895761  MISS:    4614890  HIT %:    38.5554  MISS %:    61.4446   MPKI: 23.0744
LLC LOAD      ACCESS:     116532  HIT:         12  MISS:     116520  HIT %:  0.0102976  MISS %:    99.9897   MPKI: 0.5826
LLC RFO       ACCESS:    2985624  HIT:          0  MISS:    2985624  HIT %:          0  MISS %:        100   MPKI: 14.9281
LLC PREFETCH  ACCESS:    1410821  HIT:        163  MISS:    1410658  HIT %:  0.0115536  MISS %:    99.9884   MPKI: 7.05329
LLC WRITEBACK ACCESS:    2988223  HIT:    2895110  MISS:      93113  HIT %:     96.884  MISS %:      3.116   MPKI: 0.465565
LLC LOAD TRANSLATION ACCESS:       6049  HIT:         21  MISS:       6028  HIT %:   0.347165  MISS %:    99.6528   MPKI: 0.03014
LLC TRANSLATION FROM L1D PREFETCHER ACCESS:       3402  HIT:        455  MISS:       2947  HIT %:    13.3745  MISS %:    86.6255   MPKI: 0.014735
LLC PREFETCH  REQUESTED:          0  ISSUED:          0  USEFUL:        733  USELESS:    5654710
LLC USEFUL LOAD PREFETCHES:        733 PREFETCH ISSUED TO LOWER LEVEL:  124261004  ACCURACY: 0.000589887
LLC TIMELY PREFETCHES:        733 LATE PREFETCHES: 0 DROPPED PREFETCHES: 0
LLC PREFETCHES SAME FILL-ORIGIN LEVEL: 0 DIFFERENT FILL-ORIGIN LEVEL: 0
LLC AVERAGE MISS LATENCY: 4647.68 cycles
LLC RQ	ACCESS:   12500274	FORWARD:          0	MERGED:          0	TO_CACHE:   12500274
LLC WQ	ACCESS:   12003302	FORWARD:          0	MERGED:          0	TO_CACHE:   12003302
LLC PQ	ACCESS:    5655356	FORWARD:          0	MERGED:          0	TO_CACHE:    5655356

LLC Dense regions hint to LLC: 0

RAW hits: 21
Loads Generated: 22813191
Loads sent to L1D: 22813170
Stores Generated: 41926588
Stores sent to L1D: 41926587
Major fault: 0 Minor fault: 89627
Allocated PAGES: 358508

DRAM Statistics
 CHANNEL 0
 RQ ROW_BUFFER_HIT:    9110447  ROW_BUFFER_MISS:    9042629
 DBUS_CONGESTED:          0
 WQ ROW_BUFFER_HIT:    2585782  ROW_BUFFER_MISS:    9433654  FULL:     141101

 AVG_CONGESTED_CYCLE: -
 All warmup complete: 5
Channel 0 Bank busy for read cycles: 0
Channel 0 Bank busy for write cycles: 0
Channel 0
Rank 0
0banks busy for read cycles: 442
0banks busy for write cycles: 0
1banks busy for read cycles: 1148419
1banks busy for write cycles: 1083128
2banks busy for read cycles: 1394394
2banks busy for write cycles: 1083128
3banks busy for read cycles: 1995978
3banks busy for write cycles: 1083128
4banks busy for read cycles: 3213892
4banks busy for write cycles: 1083128
5banks busy for read cycles: 5463654
5banks busy for write cycles: 1083537
6banks busy for read cycles: 10228646
6banks busy for write cycles: 1191963
7banks busy for read cycles: 34256736
7banks busy for write cycles: 15651041
8banks busy for read cycles: 215093063
8banks busy for write cycles: 239093961

CPU 0 Branch Prediction Accuracy: 97.5713% MPKI: 2.83042 Average ROB Occupancy at Mispredict: 119.723
Branch types
NOT_BRANCH: 176692193 88.3461%
BRANCH_DIRECT_JUMP: 28 1.4e-05%
BRANCH_INDIRECT: 0 0%
BRANCH_CONDITIONAL: 23307781 11.6539%
BRANCH_DIRECT_CALL: 4 2e-06%
BRANCH_INDIRECT_CALL: 0 0%
BRANCH_RETURN: 4 2e-06%
BRANCH_OTHER: 0 0%


CPU 1 Branch Prediction Accuracy: 97.5856% MPKI: 2.81606 Average ROB Occupancy at Mispredict: 119.574
Branch types
NOT_BRANCH: 177595884 88.3365%
BRANCH_DIRECT_JUMP: 507 0.000252183%
BRANCH_INDIRECT: 0 0%
BRANCH_CONDITIONAL: 23448502 11.6633%
BRANCH_DIRECT_CALL: 53 2.63623e-05%
BRANCH_INDIRECT_CALL: 0 0%
BRANCH_RETURN: 54 2.68597e-05%
BRANCH_OTHER: 0 0%


CPU 2 Branch Prediction Accuracy: 97.5802% MPKI: 2.82158 Average ROB Occupancy at Mispredict: 119.472
Branch types
NOT_BRANCH: 177254607 88.3398%
BRANCH_DIRECT_JUMP: 507 0.000252678%
BRANCH_INDIRECT: 0 0%
BRANCH_CONDITIONAL: 23395997 11.6601%
BRANCH_DIRECT_CALL: 53 2.6414e-05%
BRANCH_INDIRECT_CALL: 0 0%
BRANCH_RETURN: 54 2.69124e-05%
BRANCH_OTHER: 0 0%


CPU 3 Branch Prediction Accuracy: 97.5794% MPKI: 2.82243 Average ROB Occupancy at Mispredict: 119.528
Branch types
NOT_BRANCH: 177202356 88.3403%
BRANCH_DIRECT_JUMP: 507 0.000252754%
BRANCH_INDIRECT: 0 0%
BRANCH_CONDITIONAL: 23387959 11.6596%
BRANCH_DIRECT_CALL: 53 2.6422e-05%
BRANCH_INDIRECT_CALL: 0 0%
BRANCH_RETURN: 54 2.69205e-05%
BRANCH_OTHER: 0 0%

DRAM PAGES: 1048576
Allocated PAGES: 358508
