
*** ChampSim Multicore Out-of-Order Simulator ***

Warmup Instructions: 50000000
Simulation Instructions: 200000000
Number of CPUs: 4
LLC sets: 8192
LLC ways: 16
Off-chip DRAM Size: 4096 MB Channels: 1 Width: 64-bit Data Rate: 6400 MT/s
CPU 0 runs ./traces/ligra/ligra_MIS.com-lj.ungraph.gcc_6.3.0_O3.drop_11000M.length_250M.champsimtrace.xz
.xz
CPU 1 runs ./traces/ligra/ligra_MIS.com-lj.ungraph.gcc_6.3.0_O3.drop_11000M.length_250M.champsimtrace.xz
.xz
CPU 2 runs ./traces/ligra/ligra_MIS.com-lj.ungraph.gcc_6.3.0_O3.drop_11000M.length_250M.champsimtrace.xz
.xz
CPU 3 runs ./traces/ligra/ligra_MIS.com-lj.ungraph.gcc_6.3.0_O3.drop_11000M.length_250M.champsimtrace.xz
.xz
BTB has LRU replacement policy
ITLB has LRU replacement policy
DTLB has LRU replacement policy
STLB has LRU replacement policy
L1I has LRU replacement policy
History Sets: 8
History Ways: 16
BERTI Size: 16
BERTI Stride Size: 8
L1D has LRU replacement policy
Initialize SRRIP state for L2C
Initialize DRRIP state for LLC
BTB has LRU replacement policy
ITLB has LRU replacement policy
DTLB has LRU replacement policy
STLB has LRU replacement policy
L1I has LRU replacement policy
History Sets: 8
History Ways: 16
BERTI Size: 16
BERTI Stride Size: 8
L1D has LRU replacement policy
Initialize SRRIP state for L2C
Initialize DRRIP state for LLC
BTB has LRU replacement policy
ITLB has LRU replacement policy
DTLB has LRU replacement policy
STLB has LRU replacement policy
L1I has LRU replacement policy
History Sets: 8
History Ways: 16
BERTI Size: 16
BERTI Stride Size: 8
L1D has LRU replacement policy
Initialize SRRIP state for L2C
Initialize DRRIP state for LLC
BTB has LRU replacement policy
ITLB has LRU replacement policy
DTLB has LRU replacement policy
STLB has LRU replacement policy
L1I has LRU replacement policy
History Sets: 8
History Ways: 16
BERTI Size: 16
BERTI Stride Size: 8
L1D has LRU replacement policy
Initialize SRRIP state for L2C
Initialize DRRIP state for LLC
Heartbeat CPU 0 instructions: 10000001 cycles: 2924447 heartbeat IPC: 3.41945 cumulative IPC: 3.41945 (Simulation time: 0 hr 2 min 49 sec) 
Heartbeat CPU 1 instructions: 10000001 cycles: 2924450 heartbeat IPC: 3.41945 cumulative IPC: 3.41945 (Simulation time: 0 hr 2 min 49 sec) 
Heartbeat CPU 2 instructions: 10000001 cycles: 2924472 heartbeat IPC: 3.41942 cumulative IPC: 3.41942 (Simulation time: 0 hr 2 min 49 sec) 
Heartbeat CPU 3 instructions: 10000001 cycles: 2924475 heartbeat IPC: 3.41942 cumulative IPC: 3.41942 (Simulation time: 0 hr 2 min 49 sec) 
Heartbeat CPU 0 instructions: 20000000 cycles: 5849201 heartbeat IPC: 3.41909 cumulative IPC: 3.41927 (Simulation time: 0 hr 4 min 49 sec) 
Heartbeat CPU 1 instructions: 20000000 cycles: 5849204 heartbeat IPC: 3.41909 cumulative IPC: 3.41927 (Simulation time: 0 hr 4 min 49 sec) 
Heartbeat CPU 2 instructions: 20000000 cycles: 5849226 heartbeat IPC: 3.41909 cumulative IPC: 3.41926 (Simulation time: 0 hr 4 min 49 sec) 
Heartbeat CPU 3 instructions: 20000000 cycles: 5849229 heartbeat IPC: 3.41909 cumulative IPC: 3.41925 (Simulation time: 0 hr 4 min 49 sec) 
Heartbeat CPU 0 instructions: 30000000 cycles: 8773447 heartbeat IPC: 3.41968 cumulative IPC: 3.41941 (Simulation time: 0 hr 7 min 22 sec) 
Heartbeat CPU 1 instructions: 30000000 cycles: 8773450 heartbeat IPC: 3.41968 cumulative IPC: 3.41941 (Simulation time: 0 hr 7 min 22 sec) 
Heartbeat CPU 2 instructions: 30000000 cycles: 8773471 heartbeat IPC: 3.41969 cumulative IPC: 3.4194 (Simulation time: 0 hr 7 min 22 sec) 
Heartbeat CPU 3 instructions: 30000000 cycles: 8773475 heartbeat IPC: 3.41968 cumulative IPC: 3.4194 (Simulation time: 0 hr 7 min 22 sec) 
Heartbeat CPU 0 instructions: 40000001 cycles: 11697143 heartbeat IPC: 3.42033 cumulative IPC: 3.41964 (Simulation time: 0 hr 9 min 50 sec) 
Heartbeat CPU 1 instructions: 40000001 cycles: 11697146 heartbeat IPC: 3.42033 cumulative IPC: 3.41964 (Simulation time: 0 hr 9 min 50 sec) 
Heartbeat CPU 2 instructions: 40000001 cycles: 11697170 heartbeat IPC: 3.42033 cumulative IPC: 3.41963 (Simulation time: 0 hr 9 min 50 sec) 
Heartbeat CPU 3 instructions: 40000001 cycles: 11697177 heartbeat IPC: 3.42032 cumulative IPC: 3.41963 (Simulation time: 0 hr 9 min 50 sec) 
Heartbeat CPU 0 instructions: 50000001 cycles: 14620944 heartbeat IPC: 3.42021 cumulative IPC: 3.41975 (Simulation time: 0 hr 12 min 21 sec) 
Heartbeat CPU 1 instructions: 50000001 cycles: 14620947 heartbeat IPC: 3.42021 cumulative IPC: 3.41975 (Simulation time: 0 hr 12 min 21 sec) 
Heartbeat CPU 2 instructions: 50000001 cycles: 14620969 heartbeat IPC: 3.42021 cumulative IPC: 3.41975 (Simulation time: 0 hr 12 min 21 sec) 
Heartbeat CPU 3 instructions: 50000001 cycles: 14620971 heartbeat IPC: 3.42021 cumulative IPC: 3.41975 (Simulation time: 0 hr 12 min 21 sec) 

Warmup complete CPU 0 instructions: 50000106 cycles: 14620971 (Simulation time: 0 hr 12 min 21 sec) 
Warmup complete CPU 1 instructions: 50000097 cycles: 14620971 (Simulation time: 0 hr 12 min 21 sec) 
Warmup complete CPU 2 instructions: 50000009 cycles: 14620971 (Simulation time: 0 hr 12 min 21 sec) 
Warmup complete CPU 3 instructions: 50000001 cycles: 14620971 (Simulation time: 0 hr 12 min 21 sec) 

Heartbeat CPU 0 instructions: 60000002 cycles: 26604001 heartbeat IPC: 0.834512 cumulative IPC: 0.834505 (Simulation time: 0 hr 15 min 39 sec) 
Heartbeat CPU 1 instructions: 60000002 cycles: 26604190 heartbeat IPC: 0.834499 cumulative IPC: 0.834492 (Simulation time: 0 hr 15 min 39 sec) 
Heartbeat CPU 2 instructions: 60000002 cycles: 26604241 heartbeat IPC: 0.834497 cumulative IPC: 0.834496 (Simulation time: 0 hr 15 min 39 sec) 
Heartbeat CPU 3 instructions: 60000002 cycles: 26606779 heartbeat IPC: 0.83432 cumulative IPC: 0.83432 (Simulation time: 0 hr 15 min 39 sec) 
Heartbeat CPU 0 instructions: 70000000 cycles: 38666911 heartbeat IPC: 0.828987 cumulative IPC: 0.831737 (Simulation time: 0 hr 18 min 56 sec) 
Heartbeat CPU 1 instructions: 70000000 cycles: 38668220 heartbeat IPC: 0.82891 cumulative IPC: 0.831692 (Simulation time: 0 hr 18 min 56 sec) 
Heartbeat CPU 2 instructions: 70000000 cycles: 38668366 heartbeat IPC: 0.828904 cumulative IPC: 0.831691 (Simulation time: 0 hr 18 min 56 sec) 
Heartbeat CPU 3 instructions: 70000000 cycles: 38671491 heartbeat IPC: 0.828863 cumulative IPC: 0.831583 (Simulation time: 0 hr 18 min 56 sec) 
Heartbeat CPU 0 instructions: 80000003 cycles: 50627466 heartbeat IPC: 0.836082 cumulative IPC: 0.83318 (Simulation time: 0 hr 22 min 18 sec) 
Heartbeat CPU 1 instructions: 80000003 cycles: 50630496 heartbeat IPC: 0.835962 cumulative IPC: 0.83311 (Simulation time: 0 hr 22 min 18 sec) 
Heartbeat CPU 2 instructions: 80000003 cycles: 50630648 heartbeat IPC: 0.835961 cumulative IPC: 0.833109 (Simulation time: 0 hr 22 min 18 sec) 
Heartbeat CPU 3 instructions: 80000003 cycles: 50633991 heartbeat IPC: 0.835946 cumulative IPC: 0.833032 (Simulation time: 0 hr 22 min 18 sec) 
Heartbeat CPU 0 instructions: 90000003 cycles: 62647788 heartbeat IPC: 0.831924 cumulative IPC: 0.832866 (Simulation time: 0 hr 26 min 10 sec) 
Heartbeat CPU 1 instructions: 90000003 cycles: 62651970 heartbeat IPC: 0.831845 cumulative IPC: 0.832794 (Simulation time: 0 hr 26 min 10 sec) 
Heartbeat CPU 2 instructions: 90000003 cycles: 62652429 heartbeat IPC: 0.831824 cumulative IPC: 0.832787 (Simulation time: 0 hr 26 min 10 sec) 
Heartbeat CPU 3 instructions: 90000003 cycles: 62657760 heartbeat IPC: 0.831686 cumulative IPC: 0.832695 (Simulation time: 0 hr 26 min 10 sec) 
Heartbeat CPU 0 instructions: 100000000 cycles: 74651329 heartbeat IPC: 0.833087 cumulative IPC: 0.83291 (Simulation time: 0 hr 29 min 59 sec) 
Heartbeat CPU 1 instructions: 100000000 cycles: 74654771 heartbeat IPC: 0.833139 cumulative IPC: 0.832863 (Simulation time: 0 hr 29 min 59 sec) 
Heartbeat CPU 2 instructions: 100000000 cycles: 74655126 heartbeat IPC: 0.833146 cumulative IPC: 0.832859 (Simulation time: 0 hr 29 min 59 sec) 
Heartbeat CPU 3 instructions: 100000000 cycles: 74662047 heartbeat IPC: 0.833035 cumulative IPC: 0.832763 (Simulation time: 0 hr 29 min 59 sec) 
Heartbeat CPU 0 instructions: 110000000 cycles: 86672412 heartbeat IPC: 0.831872 cumulative IPC: 0.832737 (Simulation time: 0 hr 33 min 18 sec) 
Heartbeat CPU 1 instructions: 110000000 cycles: 86675185 heartbeat IPC: 0.831918 cumulative IPC: 0.832705 (Simulation time: 0 hr 33 min 18 sec) 
Heartbeat CPU 2 instructions: 110000000 cycles: 86675287 heartbeat IPC: 0.831936 cumulative IPC: 0.832705 (Simulation time: 0 hr 33 min 18 sec) 
Heartbeat CPU 3 instructions: 110000000 cycles: 86685511 heartbeat IPC: 0.831707 cumulative IPC: 0.832587 (Simulation time: 0 hr 33 min 18 sec) 
Heartbeat CPU 0 instructions: 120000001 cycles: 98697350 heartbeat IPC: 0.831605 cumulative IPC: 0.832575 (Simulation time: 0 hr 36 min 27 sec) 
Heartbeat CPU 1 instructions: 120000001 cycles: 98700635 heartbeat IPC: 0.83157 cumulative IPC: 0.832543 (Simulation time: 0 hr 36 min 27 sec) 
Heartbeat CPU 2 instructions: 120000001 cycles: 98701284 heartbeat IPC: 0.831532 cumulative IPC: 0.832537 (Simulation time: 0 hr 36 min 27 sec) 
Heartbeat CPU 3 instructions: 120000001 cycles: 98713173 heartbeat IPC: 0.831417 cumulative IPC: 0.83242 (Simulation time: 0 hr 36 min 27 sec) 
Heartbeat CPU 0 instructions: 130000001 cycles: 110766029 heartbeat IPC: 0.828591 cumulative IPC: 0.832075 (Simulation time: 0 hr 39 min 34 sec) 
Heartbeat CPU 1 instructions: 130000001 cycles: 110768443 heartbeat IPC: 0.828651 cumulative IPC: 0.832054 (Simulation time: 0 hr 39 min 34 sec) 
Heartbeat CPU 2 instructions: 130000001 cycles: 110768858 heartbeat IPC: 0.828667 cumulative IPC: 0.832051 (Simulation time: 0 hr 39 min 34 sec) 
Heartbeat CPU 3 instructions: 130000001 cycles: 110783101 heartbeat IPC: 0.828505 cumulative IPC: 0.831928 (Simulation time: 0 hr 39 min 34 sec) 
Heartbeat CPU 0 instructions: 140000003 cycles: 122851439 heartbeat IPC: 0.827444 cumulative IPC: 0.831558 (Simulation time: 0 hr 43 min 16 sec) 
Heartbeat CPU 1 instructions: 140000003 cycles: 122853963 heartbeat IPC: 0.827437 cumulative IPC: 0.831539 (Simulation time: 0 hr 43 min 16 sec) 
Heartbeat CPU 2 instructions: 140000003 cycles: 122855271 heartbeat IPC: 0.827375 cumulative IPC: 0.831529 (Simulation time: 0 hr 43 min 16 sec) 
Heartbeat CPU 3 instructions: 140000003 cycles: 122869123 heartbeat IPC: 0.827402 cumulative IPC: 0.831423 (Simulation time: 0 hr 43 min 16 sec) 
Heartbeat CPU 0 instructions: 150000003 cycles: 134845451 heartbeat IPC: 0.833749 cumulative IPC: 0.831776 (Simulation time: 0 hr 47 min 9 sec) 
Heartbeat CPU 1 instructions: 150000003 cycles: 134847994 heartbeat IPC: 0.833748 cumulative IPC: 0.831759 (Simulation time: 0 hr 47 min 9 sec) 
Heartbeat CPU 2 instructions: 150000003 cycles: 134850263 heartbeat IPC: 0.833681 cumulative IPC: 0.831744 (Simulation time: 0 hr 47 min 9 sec) 
Heartbeat CPU 3 instructions: 150000003 cycles: 134862794 heartbeat IPC: 0.833773 cumulative IPC: 0.831657 (Simulation time: 0 hr 47 min 9 sec) 
Heartbeat CPU 0 instructions: 160000003 cycles: 146774824 heartbeat IPC: 0.838267 cumulative IPC: 0.832362 (Simulation time: 0 hr 50 min 13 sec) 
Heartbeat CPU 1 instructions: 160000003 cycles: 146777299 heartbeat IPC: 0.838272 cumulative IPC: 0.832347 (Simulation time: 0 hr 50 min 13 sec) 
Heartbeat CPU 2 instructions: 160000003 cycles: 146779955 heartbeat IPC: 0.838245 cumulative IPC: 0.832331 (Simulation time: 0 hr 50 min 13 sec) 
Heartbeat CPU 3 instructions: 160000003 cycles: 146793284 heartbeat IPC: 0.838189 cumulative IPC: 0.832247 (Simulation time: 0 hr 50 min 13 sec) 
Heartbeat CPU 0 instructions: 170000000 cycles: 158939083 heartbeat IPC: 0.82208 cumulative IPC: 0.831496 (Simulation time: 0 hr 53 min 18 sec) 
Heartbeat CPU 1 instructions: 170000000 cycles: 158941787 heartbeat IPC: 0.822065 cumulative IPC: 0.83148 (Simulation time: 0 hr 53 min 18 sec) 
Heartbeat CPU 2 instructions: 170000000 cycles: 158944285 heartbeat IPC: 0.822075 cumulative IPC: 0.831466 (Simulation time: 0 hr 53 min 18 sec) 
Heartbeat CPU 3 instructions: 170000000 cycles: 158958830 heartbeat IPC: 0.821993 cumulative IPC: 0.831383 (Simulation time: 0 hr 53 min 18 sec) 
Heartbeat CPU 0 instructions: 180000001 cycles: 171097847 heartbeat IPC: 0.822452 cumulative IPC: 0.830793 (Simulation time: 0 hr 56 min 28 sec) 
Heartbeat CPU 1 instructions: 180000001 cycles: 171102200 heartbeat IPC: 0.822341 cumulative IPC: 0.83077 (Simulation time: 0 hr 56 min 28 sec) 
Heartbeat CPU 2 instructions: 180000001 cycles: 171104778 heartbeat IPC: 0.822335 cumulative IPC: 0.830757 (Simulation time: 0 hr 56 min 28 sec) 
Heartbeat CPU 3 instructions: 180000001 cycles: 171119161 heartbeat IPC: 0.822346 cumulative IPC: 0.830681 (Simulation time: 0 hr 56 min 28 sec) 
Heartbeat CPU 0 instructions: 190000000 cycles: 183070146 heartbeat IPC: 0.835261 cumulative IPC: 0.831111 (Simulation time: 1 hr 0 min 19 sec) 
Heartbeat CPU 1 instructions: 190000000 cycles: 183073012 heartbeat IPC: 0.835365 cumulative IPC: 0.831097 (Simulation time: 1 hr 0 min 19 sec) 
Heartbeat CPU 2 instructions: 190000000 cycles: 183075480 heartbeat IPC: 0.835373 cumulative IPC: 0.831085 (Simulation time: 1 hr 0 min 19 sec) 
Heartbeat CPU 3 instructions: 190000000 cycles: 183091854 heartbeat IPC: 0.835234 cumulative IPC: 0.831004 (Simulation time: 1 hr 0 min 19 sec) 
Heartbeat CPU 0 instructions: 200000001 cycles: 195057799 heartbeat IPC: 0.834192 cumulative IPC: 0.831315 (Simulation time: 1 hr 4 min 11 sec) 
Heartbeat CPU 1 instructions: 200000001 cycles: 195060122 heartbeat IPC: 0.83423 cumulative IPC: 0.831305 (Simulation time: 1 hr 4 min 11 sec) 
Heartbeat CPU 2 instructions: 200000001 cycles: 195062844 heartbeat IPC: 0.834212 cumulative IPC: 0.831293 (Simulation time: 1 hr 4 min 11 sec) 
Heartbeat CPU 3 instructions: 200000001 cycles: 195079861 heartbeat IPC: 0.834167 cumulative IPC: 0.831214 (Simulation time: 1 hr 4 min 12 sec) 
Heartbeat CPU 0 instructions: 210000001 cycles: 206897515 heartbeat IPC: 0.844615 cumulative IPC: 0.832134 (Simulation time: 1 hr 7 min 50 sec) 
Heartbeat CPU 1 instructions: 210000001 cycles: 206899544 heartbeat IPC: 0.844636 cumulative IPC: 0.832125 (Simulation time: 1 hr 7 min 50 sec) 
Heartbeat CPU 2 instructions: 210000001 cycles: 206902173 heartbeat IPC: 0.844642 cumulative IPC: 0.832115 (Simulation time: 1 hr 7 min 50 sec) 
Heartbeat CPU 3 instructions: 210000001 cycles: 206919562 heartbeat IPC: 0.844616 cumulative IPC: 0.832039 (Simulation time: 1 hr 7 min 50 sec) 
Heartbeat CPU 0 instructions: 220000000 cycles: 218887110 heartbeat IPC: 0.834056 cumulative IPC: 0.832247 (Simulation time: 1 hr 11 min 32 sec) 
Heartbeat CPU 1 instructions: 220000000 cycles: 218889576 heartbeat IPC: 0.834026 cumulative IPC: 0.832237 (Simulation time: 1 hr 11 min 32 sec) 
Heartbeat CPU 2 instructions: 220000000 cycles: 218892043 heartbeat IPC: 0.834037 cumulative IPC: 0.832227 (Simulation time: 1 hr 11 min 32 sec) 
Heartbeat CPU 3 instructions: 220000000 cycles: 218909087 heartbeat IPC: 0.834061 cumulative IPC: 0.832158 (Simulation time: 1 hr 11 min 32 sec) 
Heartbeat CPU 0 instructions: 230000000 cycles: 230900035 heartbeat IPC: 0.832437 cumulative IPC: 0.832258 (Simulation time: 1 hr 15 min 4 sec) 
Heartbeat CPU 1 instructions: 230000000 cycles: 230903194 heartbeat IPC: 0.832389 cumulative IPC: 0.832245 (Simulation time: 1 hr 15 min 4 sec) 
Heartbeat CPU 2 instructions: 230000000 cycles: 230905636 heartbeat IPC: 0.83239 cumulative IPC: 0.832236 (Simulation time: 1 hr 15 min 4 sec) 
Heartbeat CPU 3 instructions: 230000000 cycles: 230922956 heartbeat IPC: 0.832371 cumulative IPC: 0.83217 (Simulation time: 1 hr 15 min 5 sec) 
Heartbeat CPU 0 instructions: 240000000 cycles: 242952480 heartbeat IPC: 0.829707 cumulative IPC: 0.832123 (Simulation time: 1 hr 18 min 28 sec) 
Heartbeat CPU 1 instructions: 240000000 cycles: 242954569 heartbeat IPC: 0.829781 cumulative IPC: 0.832115 (Simulation time: 1 hr 18 min 28 sec) 
Heartbeat CPU 2 instructions: 240000000 cycles: 242957099 heartbeat IPC: 0.829775 cumulative IPC: 0.832107 (Simulation time: 1 hr 18 min 28 sec) 
Heartbeat CPU 3 instructions: 240000000 cycles: 242974985 heartbeat IPC: 0.829736 cumulative IPC: 0.832041 (Simulation time: 1 hr 18 min 28 sec) 
*** Reached end of trace for Core: 0 Repeating trace: ./traces/ligra/ligra_MIS.com-lj.ungraph.gcc_6.3.0_O3.drop_11000M.length_250M.champsimtrace.xz
Heartbeat CPU 0 instructions: 250000002 cycles: 254749030 heartbeat IPC: 0.847706 cumulative IPC: 0.832888 (Simulation time: 1 hr 22 min 3 sec) 
Finished CPU 0 instructions: 200000003 cycles: 240128837 cumulative IPC: 0.832886 (Simulation time: 1 hr 22 min 3 sec) 
*** Reached end of trace for Core: 1 Repeating trace: ./traces/ligra/ligra_MIS.com-lj.ungraph.gcc_6.3.0_O3.drop_11000M.length_250M.champsimtrace.xz
Heartbeat CPU 1 instructions: 250000002 cycles: 254751965 heartbeat IPC: 0.847645 cumulative IPC: 0.832878 (Simulation time: 1 hr 22 min 3 sec) 
Finished CPU 1 instructions: 200000003 cycles: 240131385 cumulative IPC: 0.832877 (Simulation time: 1 hr 22 min 3 sec) 
*** Reached end of trace for Core: 2 Repeating trace: ./traces/ligra/ligra_MIS.com-lj.ungraph.gcc_6.3.0_O3.drop_11000M.length_250M.champsimtrace.xz
Heartbeat CPU 2 instructions: 250000002 cycles: 254754588 heartbeat IPC: 0.847638 cumulative IPC: 0.83287 (Simulation time: 1 hr 22 min 3 sec) 
Finished CPU 2 instructions: 200000003 cycles: 240133986 cumulative IPC: 0.832868 (Simulation time: 1 hr 22 min 3 sec) 
*** Reached end of trace for Core: 3 Repeating trace: ./traces/ligra/ligra_MIS.com-lj.ungraph.gcc_6.3.0_O3.drop_11000M.length_250M.champsimtrace.xz
Heartbeat CPU 3 instructions: 250000002 cycles: 254771501 heartbeat IPC: 0.847708 cumulative IPC: 0.832811 (Simulation time: 1 hr 22 min 4 sec) 
Finished CPU 3 instructions: 200000001 cycles: 240150530 cumulative IPC: 0.832811 (Simulation time: 1 hr 22 min 4 sec) 

ChampSim completed all CPUs

Total Simulation Statistics (not including warmup)

CPU 0 cumulative IPC: 0.832886 instructions: 200018058 cycles: 240150530
ITLB TOTAL     ACCESS:   35862630  HIT:   35862630  MISS:          0  HIT %:        100  MISS %:          0   MPKI: 0
ITLB LOAD      ACCESS:          0  HIT:          0  MISS:          0  HIT %:       -nan  MISS %:       -nan   MPKI: 0
ITLB RFO       ACCESS:          0  HIT:          0  MISS:          0  HIT %:       -nan  MISS %:       -nan   MPKI: 0
ITLB PREFETCH  ACCESS:          0  HIT:          0  MISS:          0  HIT %:       -nan  MISS %:       -nan   MPKI: 0
ITLB WRITEBACK ACCESS:          0  HIT:          0  MISS:          0  HIT %:       -nan  MISS %:       -nan   MPKI: 0
DTLB TOTAL     ACCESS:   26365232  HIT:   26361150  MISS:       4082  HIT %:    99.9845  MISS %:  0.0154825   MPKI: 0.0204082
DTLB LOAD      ACCESS:          0  HIT:          0  MISS:          0  HIT %:       -nan  MISS %:       -nan   MPKI: 0
DTLB RFO       ACCESS:          0  HIT:          0  MISS:          0  HIT %:       -nan  MISS %:       -nan   MPKI: 0
DTLB PREFETCH  ACCESS:          0  HIT:          0  MISS:          0  HIT %:       -nan  MISS %:       -nan   MPKI: 0
DTLB WRITEBACK ACCESS:          0  HIT:          0  MISS:          0  HIT %:       -nan  MISS %:       -nan   MPKI: 0
STLB TOTAL     ACCESS:    3940207  HIT:    3936124  MISS:       4083  HIT %:    99.8964  MISS %:   0.103624   MPKI: 0.0204132
STLB LOAD      ACCESS:          0  HIT:          0  MISS:          0  HIT %:       -nan  MISS %:       -nan   MPKI: 0
STLB RFO       ACCESS:          0  HIT:          0  MISS:          0  HIT %:       -nan  MISS %:       -nan   MPKI: 0
STLB PREFETCH  ACCESS:          0  HIT:          0  MISS:          0  HIT %:       -nan  MISS %:       -nan   MPKI: 0
STLB WRITEBACK ACCESS:          0  HIT:          0  MISS:          0  HIT %:       -nan  MISS %:       -nan   MPKI: 0
L1D TOTAL     ACCESS:   48855086  HIT:   48594119  MISS:     260967  HIT %:    99.4658  MISS %:   0.534165   MPKI: 1.30472
L1D LOAD      ACCESS:   19410983  HIT:   19407628  MISS:       3355  HIT %:    99.9827  MISS %:   0.017284   MPKI: 0.0167735
L1D RFO       ACCESS:   10317190  HIT:   10263432  MISS:      53758  HIT %:    99.4789  MISS %:   0.521053   MPKI: 0.268766
L1D PREFETCH  ACCESS:   19126913  HIT:   18923059  MISS:     203854  HIT %:    98.9342  MISS %:     1.0658   MPKI: 1.01918
L1D WRITEBACK ACCESS:          0  HIT:          0  MISS:          0  HIT %:       -nan  MISS %:       -nan   MPKI: 0
L1I TOTAL     ACCESS:   38391952  HIT:   38391952  MISS:          0  HIT %:        100  MISS %:          0   MPKI: 0
L1I LOAD      ACCESS:   38391952  HIT:   38391952  MISS:          0  HIT %:        100  MISS %:          0   MPKI: 0
L1I RFO       ACCESS:          0  HIT:          0  MISS:          0  HIT %:       -nan  MISS %:       -nan   MPKI: 0
L1I PREFETCH  ACCESS:          0  HIT:          0  MISS:          0  HIT %:       -nan  MISS %:       -nan   MPKI: 0
L1I WRITEBACK ACCESS:          0  HIT:          0  MISS:          0  HIT %:       -nan  MISS %:       -nan   MPKI: 0
L2C TOTAL     ACCESS:    4429358  HIT:    4158083  MISS:     271275  HIT %:    93.8755  MISS %:    6.12448   MPKI: 1.35625
L2C LOAD      ACCESS:       2967  HIT:        115  MISS:       2852  HIT %:    3.87597  MISS %:     96.124   MPKI: 0.0142587
L2C RFO       ACCESS:      53758  HIT:          0  MISS:      53758  HIT %:          0  MISS %:        100   MPKI: 0.268766
L2C PREFETCH  ACCESS:    3864785  HIT:    3660402  MISS:     204383  HIT %:    94.7117  MISS %:    5.28834   MPKI: 1.02182
L2C WRITEBACK ACCESS:      53780  HIT:      44019  MISS:       9761  HIT %:    81.8501  MISS %:    18.1499   MPKI: 0.0488006
PSCL5 TOTAL     ACCESS:     454068  HIT:     454068  MISS:          0  HIT %:        100  MISS %:          0   MPKI: 0
PSCL5 LOAD      ACCESS:          0  HIT:          0  MISS:          0  HIT %:       -nan  MISS %:       -nan   MPKI: 0
PSCL5 RFO       ACCESS:          0  HIT:          0  MISS:          0  HIT %:       -nan  MISS %:       -nan   MPKI: 0
PSCL5 PREFETCH  ACCESS:          0  HIT:          0  MISS:          0  HIT %:       -nan  MISS %:       -nan   MPKI: 0
PSCL5 WRITEBACK ACCESS:          0  HIT:          0  MISS:          0  HIT %:       -nan  MISS %:       -nan   MPKI: 0
PSCL4 TOTAL     ACCESS:     454068  HIT:     454068  MISS:          0  HIT %:        100  MISS %:          0   MPKI: 0
PSCL4 LOAD      ACCESS:          0  HIT:          0  MISS:          0  HIT %:       -nan  MISS %:       -nan   MPKI: 0
PSCL4 RFO       ACCESS:          0  HIT:          0  MISS:          0  HIT %:       -nan  MISS %:       -nan   MPKI: 0
PSCL4 PREFETCH  ACCESS:          0  HIT:          0  MISS:          0  HIT %:       -nan  MISS %:       -nan   MPKI: 0
PSCL4 WRITEBACK ACCESS:          0  HIT:          0  MISS:          0  HIT %:       -nan  MISS %:       -nan   MPKI: 0
PSCL3 TOTAL     ACCESS:     454068  HIT:     454068  MISS:          0  HIT %:        100  MISS %:          0   MPKI: 0
PSCL3 LOAD      ACCESS:          0  HIT:          0  MISS:          0  HIT %:       -nan  MISS %:       -nan   MPKI: 0
PSCL3 RFO       ACCESS:          0  HIT:          0  MISS:          0  HIT %:       -nan  MISS %:       -nan   MPKI: 0
PSCL3 PREFETCH  ACCESS:          0  HIT:          0  MISS:          0  HIT %:       -nan  MISS %:       -nan   MPKI: 0
PSCL3 WRITEBACK ACCESS:          0  HIT:          0  MISS:          0  HIT %:       -nan  MISS %:       -nan   MPKI: 0
PSCL2 TOTAL     ACCESS:     453156  HIT:     453147  MISS:          9  HIT %:     99.998  MISS %: 0.00198607   MPKI: 4.49959e-05
PSCL2 LOAD      ACCESS:          0  HIT:          0  MISS:          0  HIT %:       -nan  MISS %:       -nan   MPKI: 0
PSCL2 RFO       ACCESS:          0  HIT:          0  MISS:          0  HIT %:       -nan  MISS %:       -nan   MPKI: 0
PSCL2 PREFETCH  ACCESS:          0  HIT:          0  MISS:          0  HIT %:       -nan  MISS %:       -nan   MPKI: 0
PSCL2 WRITEBACK ACCESS:          0  HIT:          0  MISS:          0  HIT %:       -nan  MISS %:       -nan   MPKI: 0
LLC TOTAL     ACCESS:     316343  HIT:      49956  MISS:     266387  HIT %:    15.7917  MISS %:    84.2083   MPKI: 1.33181
LLC LOAD      ACCESS:       2765  HIT:          0  MISS:       2765  HIT %:          0  MISS %:        100   MPKI: 0.0138238
LLC RFO       ACCESS:      53758  HIT:          0  MISS:      53758  HIT %:          0  MISS %:        100   MPKI: 0.268766
LLC PREFETCH  ACCESS:     204470  HIT:          0  MISS:     204470  HIT %:          0  MISS %:        100   MPKI: 1.02226
LLC WRITEBACK ACCESS:      54829  HIT:      49956  MISS:       4873  HIT %:    91.1124  MISS %:    8.88763   MPKI: 0.0243628

RAW hits: 2695678
Loads Generated: 28242102
Loads sent to L1D: 25546424
Stores Generated: 10321273
Stores sent to L1D: 10321281

CPU 1 cumulative IPC: 0.832876 instructions: 200015647 cycles: 240150530
ITLB TOTAL     ACCESS:   35862162  HIT:   35862162  MISS:          0  HIT %:        100  MISS %:          0   MPKI: 0
ITLB LOAD      ACCESS:          0  HIT:          0  MISS:          0  HIT %:       -nan  MISS %:       -nan   MPKI: 0
ITLB RFO       ACCESS:          0  HIT:          0  MISS:          0  HIT %:       -nan  MISS %:       -nan   MPKI: 0
ITLB PREFETCH  ACCESS:          0  HIT:          0  MISS:          0  HIT %:       -nan  MISS %:       -nan   MPKI: 0
ITLB WRITEBACK ACCESS:          0  HIT:          0  MISS:          0  HIT %:       -nan  MISS %:       -nan   MPKI: 0
DTLB TOTAL     ACCESS:   26364902  HIT:   26360820  MISS:       4082  HIT %:    99.9845  MISS %:  0.0154827   MPKI: 0.0204084
DTLB LOAD      ACCESS:          0  HIT:          0  MISS:          0  HIT %:       -nan  MISS %:       -nan   MPKI: 0
DTLB RFO       ACCESS:          0  HIT:          0  MISS:          0  HIT %:       -nan  MISS %:       -nan   MPKI: 0
DTLB PREFETCH  ACCESS:          0  HIT:          0  MISS:          0  HIT %:       -nan  MISS %:       -nan   MPKI: 0
DTLB WRITEBACK ACCESS:          0  HIT:          0  MISS:          0  HIT %:       -nan  MISS %:       -nan   MPKI: 0
STLB TOTAL     ACCESS:    3931117  HIT:    3927034  MISS:       4083  HIT %:    99.8961  MISS %:   0.103864   MPKI: 0.0204134
STLB LOAD      ACCESS:          0  HIT:          0  MISS:          0  HIT %:       -nan  MISS %:       -nan   MPKI: 0
STLB RFO       ACCESS:          0  HIT:          0  MISS:          0  HIT %:       -nan  MISS %:       -nan   MPKI: 0
STLB PREFETCH  ACCESS:          0  HIT:          0  MISS:          0  HIT %:       -nan  MISS %:       -nan   MPKI: 0
STLB WRITEBACK ACCESS:          0  HIT:          0  MISS:          0  HIT %:       -nan  MISS %:       -nan   MPKI: 0
L1D TOTAL     ACCESS:   48850465  HIT:   48589497  MISS:     260968  HIT %:    99.4658  MISS %:   0.534218   MPKI: 1.30474
L1D LOAD      ACCESS:   19410771  HIT:   19407445  MISS:       3326  HIT %:    99.9829  MISS %:  0.0171348   MPKI: 0.0166287
L1D RFO       ACCESS:   10317620  HIT:   10263863  MISS:      53757  HIT %:     99.479  MISS %:   0.521021   MPKI: 0.268764
L1D PREFETCH  ACCESS:   19122074  HIT:   18918189  MISS:     203885  HIT %:    98.9338  MISS %:    1.06623   MPKI: 1.01935
L1D WRITEBACK ACCESS:          0  HIT:          0  MISS:          0  HIT %:       -nan  MISS %:       -nan   MPKI: 0
L1I TOTAL     ACCESS:   38391455  HIT:   38391455  MISS:          0  HIT %:        100  MISS %:          0   MPKI: 0
L1I LOAD      ACCESS:   38391455  HIT:   38391455  MISS:          0  HIT %:        100  MISS %:          0   MPKI: 0
L1I RFO       ACCESS:          0  HIT:          0  MISS:          0  HIT %:       -nan  MISS %:       -nan   MPKI: 0
L1I PREFETCH  ACCESS:          0  HIT:          0  MISS:          0  HIT %:       -nan  MISS %:       -nan   MPKI: 0
L1I WRITEBACK ACCESS:          0  HIT:          0  MISS:          0  HIT %:       -nan  MISS %:       -nan   MPKI: 0
L2C TOTAL     ACCESS:    4416460  HIT:    4145052  MISS:     271408  HIT %:    93.8546  MISS %:    6.14537   MPKI: 1.35693
L2C LOAD      ACCESS:       2933  HIT:         86  MISS:       2847  HIT %:    2.93215  MISS %:    97.0678   MPKI: 0.0142339
L2C RFO       ACCESS:      53757  HIT:          0  MISS:      53757  HIT %:          0  MISS %:        100   MPKI: 0.268764
L2C PREFETCH  ACCESS:    3858118  HIT:    3653746  MISS:     204372  HIT %:    94.7028  MISS %:    5.29719   MPKI: 1.02178
L2C WRITEBACK ACCESS:      53780  HIT:      43869  MISS:       9911  HIT %:    81.5712  MISS %:    18.4288   MPKI: 0.0495511
PSCL5 TOTAL     ACCESS:     447872  HIT:     447872  MISS:          0  HIT %:        100  MISS %:          0   MPKI: 0
PSCL5 LOAD      ACCESS:          0  HIT:          0  MISS:          0  HIT %:       -nan  MISS %:       -nan   MPKI: 0
PSCL5 RFO       ACCESS:          0  HIT:          0  MISS:          0  HIT %:       -nan  MISS %:       -nan   MPKI: 0
PSCL5 PREFETCH  ACCESS:          0  HIT:          0  MISS:          0  HIT %:       -nan  MISS %:       -nan   MPKI: 0
PSCL5 WRITEBACK ACCESS:          0  HIT:          0  MISS:          0  HIT %:       -nan  MISS %:       -nan   MPKI: 0
PSCL4 TOTAL     ACCESS:     447872  HIT:     447872  MISS:          0  HIT %:        100  MISS %:          0   MPKI: 0
PSCL4 LOAD      ACCESS:          0  HIT:          0  MISS:          0  HIT %:       -nan  MISS %:       -nan   MPKI: 0
PSCL4 RFO       ACCESS:          0  HIT:          0  MISS:          0  HIT %:       -nan  MISS %:       -nan   MPKI: 0
PSCL4 PREFETCH  ACCESS:          0  HIT:          0  MISS:          0  HIT %:       -nan  MISS %:       -nan   MPKI: 0
PSCL4 WRITEBACK ACCESS:          0  HIT:          0  MISS:          0  HIT %:       -nan  MISS %:       -nan   MPKI: 0
PSCL3 TOTAL     ACCESS:     447872  HIT:     447872  MISS:          0  HIT %:        100  MISS %:          0   MPKI: 0
PSCL3 LOAD      ACCESS:          0  HIT:          0  MISS:          0  HIT %:       -nan  MISS %:       -nan   MPKI: 0
PSCL3 RFO       ACCESS:          0  HIT:          0  MISS:          0  HIT %:       -nan  MISS %:       -nan   MPKI: 0
PSCL3 PREFETCH  ACCESS:          0  HIT:          0  MISS:          0  HIT %:       -nan  MISS %:       -nan   MPKI: 0
PSCL3 WRITEBACK ACCESS:          0  HIT:          0  MISS:          0  HIT %:       -nan  MISS %:       -nan   MPKI: 0
PSCL2 TOTAL     ACCESS:     446942  HIT:     446933  MISS:          9  HIT %:     99.998  MISS %: 0.00201368   MPKI: 4.49965e-05
PSCL2 LOAD      ACCESS:          0  HIT:          0  MISS:          0  HIT %:       -nan  MISS %:       -nan   MPKI: 0
PSCL2 RFO       ACCESS:          0  HIT:          0  MISS:          0  HIT %:       -nan  MISS %:       -nan   MPKI: 0
PSCL2 PREFETCH  ACCESS:          0  HIT:          0  MISS:          0  HIT %:       -nan  MISS %:       -nan   MPKI: 0
PSCL2 WRITEBACK ACCESS:          0  HIT:          0  MISS:          0  HIT %:       -nan  MISS %:       -nan   MPKI: 0
LLC TOTAL     ACCESS:     316324  HIT:      50147  MISS:     266177  HIT %:     15.853  MISS %:     84.147   MPKI: 1.33078
LLC LOAD      ACCESS:       2765  HIT:          0  MISS:       2765  HIT %:          0  MISS %:        100   MPKI: 0.0138239
LLC RFO       ACCESS:      53757  HIT:          0  MISS:      53757  HIT %:          0  MISS %:        100   MPKI: 0.268764
LLC PREFETCH  ACCESS:     204454  HIT:          0  MISS:     204454  HIT %:          0  MISS %:        100   MPKI: 1.02219
LLC WRITEBACK ACCESS:      54827  HIT:      50147  MISS:       4680  HIT %:    91.4641  MISS %:    8.53594   MPKI: 0.0233982

RAW hits: 2695657
Loads Generated: 28241759
Loads sent to L1D: 25546102
Stores Generated: 10321143
Stores sent to L1D: 10321153

CPU 2 cumulative IPC: 0.832868 instructions: 200013760 cycles: 240150530
ITLB TOTAL     ACCESS:   35861809  HIT:   35861809  MISS:          0  HIT %:        100  MISS %:          0   MPKI: 0
ITLB LOAD      ACCESS:          0  HIT:          0  MISS:          0  HIT %:       -nan  MISS %:       -nan   MPKI: 0
ITLB RFO       ACCESS:          0  HIT:          0  MISS:          0  HIT %:       -nan  MISS %:       -nan   MPKI: 0
ITLB PREFETCH  ACCESS:          0  HIT:          0  MISS:          0  HIT %:       -nan  MISS %:       -nan   MPKI: 0
ITLB WRITEBACK ACCESS:          0  HIT:          0  MISS:          0  HIT %:       -nan  MISS %:       -nan   MPKI: 0
DTLB TOTAL     ACCESS:   26364660  HIT:   26360578  MISS:       4082  HIT %:    99.9845  MISS %:  0.0154828   MPKI: 0.0204086
DTLB LOAD      ACCESS:          0  HIT:          0  MISS:          0  HIT %:       -nan  MISS %:       -nan   MPKI: 0
DTLB RFO       ACCESS:          0  HIT:          0  MISS:          0  HIT %:       -nan  MISS %:       -nan   MPKI: 0
DTLB PREFETCH  ACCESS:          0  HIT:          0  MISS:          0  HIT %:       -nan  MISS %:       -nan   MPKI: 0
DTLB WRITEBACK ACCESS:          0  HIT:          0  MISS:          0  HIT %:       -nan  MISS %:       -nan   MPKI: 0
STLB TOTAL     ACCESS:    3925857  HIT:    3921774  MISS:       4083  HIT %:     99.896  MISS %:   0.104003   MPKI: 0.0204136
STLB LOAD      ACCESS:          0  HIT:          0  MISS:          0  HIT %:       -nan  MISS %:       -nan   MPKI: 0
STLB RFO       ACCESS:          0  HIT:          0  MISS:          0  HIT %:       -nan  MISS %:       -nan   MPKI: 0
STLB PREFETCH  ACCESS:          0  HIT:          0  MISS:          0  HIT %:       -nan  MISS %:       -nan   MPKI: 0
STLB WRITEBACK ACCESS:          0  HIT:          0  MISS:          0  HIT %:       -nan  MISS %:       -nan   MPKI: 0
L1D TOTAL     ACCESS:   48839965  HIT:   48578989  MISS:     260976  HIT %:    99.4657  MISS %:   0.534349   MPKI: 1.30479
L1D LOAD      ACCESS:   19410574  HIT:   19407318  MISS:       3256  HIT %:    99.9832  MISS %:  0.0167744   MPKI: 0.0162789
L1D RFO       ACCESS:   10317860  HIT:   10264103  MISS:      53757  HIT %:     99.479  MISS %:   0.521009   MPKI: 0.268767
L1D PREFETCH  ACCESS:   19111531  HIT:   18907568  MISS:     203963  HIT %:    98.9328  MISS %:    1.06722   MPKI: 1.01974
L1D WRITEBACK ACCESS:          0  HIT:          0  MISS:          0  HIT %:       -nan  MISS %:       -nan   MPKI: 0
L1I TOTAL     ACCESS:   38391082  HIT:   38391082  MISS:          0  HIT %:        100  MISS %:          0   MPKI: 0
L1I LOAD      ACCESS:   38391082  HIT:   38391082  MISS:          0  HIT %:        100  MISS %:          0   MPKI: 0
L1I RFO       ACCESS:          0  HIT:          0  MISS:          0  HIT %:       -nan  MISS %:       -nan   MPKI: 0
L1I PREFETCH  ACCESS:          0  HIT:          0  MISS:          0  HIT %:       -nan  MISS %:       -nan   MPKI: 0
L1I WRITEBACK ACCESS:          0  HIT:          0  MISS:          0  HIT %:       -nan  MISS %:       -nan   MPKI: 0
L2C TOTAL     ACCESS:    4449076  HIT:    4177767  MISS:     271309  HIT %:    93.9019  MISS %:     6.0981   MPKI: 1.35645
L2C LOAD      ACCESS:       2870  HIT:         16  MISS:       2854  HIT %:   0.557491  MISS %:    99.4425   MPKI: 0.014269
L2C RFO       ACCESS:      53757  HIT:          0  MISS:      53757  HIT %:          0  MISS %:        100   MPKI: 0.268767
L2C PREFETCH  ACCESS:    3885954  HIT:    3681578  MISS:     204376  HIT %:    94.7406  MISS %:    5.25935   MPKI: 1.02181
L2C WRITEBACK ACCESS:      53780  HIT:      43981  MISS:       9799  HIT %:    81.7795  MISS %:    18.2205   MPKI: 0.0489916
PSCL5 TOTAL     ACCESS:     452715  HIT:     452715  MISS:          0  HIT %:        100  MISS %:          0   MPKI: 0
PSCL5 LOAD      ACCESS:          0  HIT:          0  MISS:          0  HIT %:       -nan  MISS %:       -nan   MPKI: 0
PSCL5 RFO       ACCESS:          0  HIT:          0  MISS:          0  HIT %:       -nan  MISS %:       -nan   MPKI: 0
PSCL5 PREFETCH  ACCESS:          0  HIT:          0  MISS:          0  HIT %:       -nan  MISS %:       -nan   MPKI: 0
PSCL5 WRITEBACK ACCESS:          0  HIT:          0  MISS:          0  HIT %:       -nan  MISS %:       -nan   MPKI: 0
PSCL4 TOTAL     ACCESS:     452715  HIT:     452715  MISS:          0  HIT %:        100  MISS %:          0   MPKI: 0
PSCL4 LOAD      ACCESS:          0  HIT:          0  MISS:          0  HIT %:       -nan  MISS %:       -nan   MPKI: 0
PSCL4 RFO       ACCESS:          0  HIT:          0  MISS:          0  HIT %:       -nan  MISS %:       -nan   MPKI: 0
PSCL4 PREFETCH  ACCESS:          0  HIT:          0  MISS:          0  HIT %:       -nan  MISS %:       -nan   MPKI: 0
PSCL4 WRITEBACK ACCESS:          0  HIT:          0  MISS:          0  HIT %:       -nan  MISS %:       -nan   MPKI: 0
PSCL3 TOTAL     ACCESS:     452715  HIT:     452715  MISS:          0  HIT %:        100  MISS %:          0   MPKI: 0
PSCL3 LOAD      ACCESS:          0  HIT:          0  MISS:          0  HIT %:       -nan  MISS %:       -nan   MPKI: 0
PSCL3 RFO       ACCESS:          0  HIT:          0  MISS:          0  HIT %:       -nan  MISS %:       -nan   MPKI: 0
PSCL3 PREFETCH  ACCESS:          0  HIT:          0  MISS:          0  HIT %:       -nan  MISS %:       -nan   MPKI: 0
PSCL3 WRITEBACK ACCESS:          0  HIT:          0  MISS:          0  HIT %:       -nan  MISS %:       -nan   MPKI: 0
PSCL2 TOTAL     ACCESS:     451898  HIT:     451889  MISS:          9  HIT %:     99.998  MISS %:  0.0019916   MPKI: 4.49969e-05
PSCL2 LOAD      ACCESS:          0  HIT:          0  MISS:          0  HIT %:       -nan  MISS %:       -nan   MPKI: 0
PSCL2 RFO       ACCESS:          0  HIT:          0  MISS:          0  HIT %:       -nan  MISS %:       -nan   MPKI: 0
PSCL2 PREFETCH  ACCESS:          0  HIT:          0  MISS:          0  HIT %:       -nan  MISS %:       -nan   MPKI: 0
PSCL2 WRITEBACK ACCESS:          0  HIT:          0  MISS:          0  HIT %:       -nan  MISS %:       -nan   MPKI: 0
LLC TOTAL     ACCESS:     316297  HIT:      50011  MISS:     266286  HIT %:    15.8114  MISS %:    84.1886   MPKI: 1.33134
LLC LOAD      ACCESS:       2776  HIT:          0  MISS:       2776  HIT %:          0  MISS %:        100   MPKI: 0.013879
LLC RFO       ACCESS:      53757  HIT:          0  MISS:      53757  HIT %:          0  MISS %:        100   MPKI: 0.268767
LLC PREFETCH  ACCESS:     204454  HIT:          0  MISS:     204454  HIT %:          0  MISS %:        100   MPKI: 1.0222
LLC WRITEBACK ACCESS:      54787  HIT:      50009  MISS:       4778  HIT %:     91.279  MISS %:    8.72105   MPKI: 0.0238884

RAW hits: 2695633
Loads Generated: 28241495
Loads sent to L1D: 25545862
Stores Generated: 10321056
Stores sent to L1D: 10321056

CPU 3 cumulative IPC: 0.832811 instructions: 200000001 cycles: 240150530
ITLB TOTAL     ACCESS:   35859358  HIT:   35859358  MISS:          0  HIT %:        100  MISS %:          0   MPKI: 0
ITLB LOAD      ACCESS:          0  HIT:          0  MISS:          0  HIT %:       -nan  MISS %:       -nan   MPKI: 0
ITLB RFO       ACCESS:          0  HIT:          0  MISS:          0  HIT %:       -nan  MISS %:       -nan   MPKI: 0
ITLB PREFETCH  ACCESS:          0  HIT:          0  MISS:          0  HIT %:       -nan  MISS %:       -nan   MPKI: 0
ITLB WRITEBACK ACCESS:          0  HIT:          0  MISS:          0  HIT %:       -nan  MISS %:       -nan   MPKI: 0
DTLB TOTAL     ACCESS:   26362873  HIT:   26358795  MISS:       4078  HIT %:    99.9845  MISS %:  0.0154687   MPKI: 0.02039
DTLB LOAD      ACCESS:          0  HIT:          0  MISS:          0  HIT %:       -nan  MISS %:       -nan   MPKI: 0
DTLB RFO       ACCESS:          0  HIT:          0  MISS:          0  HIT %:       -nan  MISS %:       -nan   MPKI: 0
DTLB PREFETCH  ACCESS:          0  HIT:          0  MISS:          0  HIT %:       -nan  MISS %:       -nan   MPKI: 0
DTLB WRITEBACK ACCESS:          0  HIT:          0  MISS:          0  HIT %:       -nan  MISS %:       -nan   MPKI: 0
STLB TOTAL     ACCESS:    3921796  HIT:    3917718  MISS:       4078  HIT %:     99.896  MISS %:   0.103983   MPKI: 0.02039
STLB LOAD      ACCESS:          0  HIT:          0  MISS:          0  HIT %:       -nan  MISS %:       -nan   MPKI: 0
STLB RFO       ACCESS:          0  HIT:          0  MISS:          0  HIT %:       -nan  MISS %:       -nan   MPKI: 0
STLB PREFETCH  ACCESS:          0  HIT:          0  MISS:          0  HIT %:       -nan  MISS %:       -nan   MPKI: 0
STLB WRITEBACK ACCESS:          0  HIT:          0  MISS:          0  HIT %:       -nan  MISS %:       -nan   MPKI: 0
L1D TOTAL     ACCESS:   48787648  HIT:   48526725  MISS:     260923  HIT %:    99.4652  MISS %:   0.534814   MPKI: 1.30461
L1D LOAD      ACCESS:   19409230  HIT:   19405944  MISS:       3286  HIT %:    99.9831  MISS %:  0.0169301   MPKI: 0.01643
L1D RFO       ACCESS:   10316696  HIT:   10262944  MISS:      53752  HIT %:     99.479  MISS %:    0.52102   MPKI: 0.26876
L1D PREFETCH  ACCESS:   19061722  HIT:   18857837  MISS:     203885  HIT %:    98.9304  MISS %:     1.0696   MPKI: 1.01942
L1D WRITEBACK ACCESS:          0  HIT:          0  MISS:          0  HIT %:       -nan  MISS %:       -nan   MPKI: 0
L1I TOTAL     ACCESS:   38388455  HIT:   38388455  MISS:          0  HIT %:        100  MISS %:          0   MPKI: 0
L1I LOAD      ACCESS:   38388455  HIT:   38388455  MISS:          0  HIT %:        100  MISS %:          0   MPKI: 0
L1I RFO       ACCESS:          0  HIT:          0  MISS:          0  HIT %:       -nan  MISS %:       -nan   MPKI: 0
L1I PREFETCH  ACCESS:          0  HIT:          0  MISS:          0  HIT %:       -nan  MISS %:       -nan   MPKI: 0
L1I WRITEBACK ACCESS:          0  HIT:          0  MISS:          0  HIT %:       -nan  MISS %:       -nan   MPKI: 0
L2C TOTAL     ACCESS:    4481912  HIT:    4210063  MISS:     271849  HIT %:    93.9345  MISS %:    6.06547   MPKI: 1.35924
L2C LOAD      ACCESS:       2906  HIT:         48  MISS:       2858  HIT %:    1.65175  MISS %:    98.3482   MPKI: 0.01429
L2C RFO       ACCESS:      53752  HIT:          0  MISS:      53752  HIT %:          0  MISS %:        100   MPKI: 0.26876
L2C PREFETCH  ACCESS:    3913889  HIT:    3709571  MISS:     204318  HIT %:    94.7797  MISS %:    5.22033   MPKI: 1.02159
L2C WRITEBACK ACCESS:      53780  HIT:      43377  MISS:      10403  HIT %:    80.6564  MISS %:    19.3436   MPKI: 0.052015
PSCL5 TOTAL     ACCESS:     457586  HIT:     457586  MISS:          0  HIT %:        100  MISS %:          0   MPKI: 0
PSCL5 LOAD      ACCESS:          0  HIT:          0  MISS:          0  HIT %:       -nan  MISS %:       -nan   MPKI: 0
PSCL5 RFO       ACCESS:          0  HIT:          0  MISS:          0  HIT %:       -nan  MISS %:       -nan   MPKI: 0
PSCL5 PREFETCH  ACCESS:          0  HIT:          0  MISS:          0  HIT %:       -nan  MISS %:       -nan   MPKI: 0
PSCL5 WRITEBACK ACCESS:          0  HIT:          0  MISS:          0  HIT %:       -nan  MISS %:       -nan   MPKI: 0
PSCL4 TOTAL     ACCESS:     457586  HIT:     457586  MISS:          0  HIT %:        100  MISS %:          0   MPKI: 0
PSCL4 LOAD      ACCESS:          0  HIT:          0  MISS:          0  HIT %:       -nan  MISS %:       -nan   MPKI: 0
PSCL4 RFO       ACCESS:          0  HIT:          0  MISS:          0  HIT %:       -nan  MISS %:       -nan   MPKI: 0
PSCL4 PREFETCH  ACCESS:          0  HIT:          0  MISS:          0  HIT %:       -nan  MISS %:       -nan   MPKI: 0
PSCL4 WRITEBACK ACCESS:          0  HIT:          0  MISS:          0  HIT %:       -nan  MISS %:       -nan   MPKI: 0
PSCL3 TOTAL     ACCESS:     457586  HIT:     457586  MISS:          0  HIT %:        100  MISS %:          0   MPKI: 0
PSCL3 LOAD      ACCESS:          0  HIT:          0  MISS:          0  HIT %:       -nan  MISS %:       -nan   MPKI: 0
PSCL3 RFO       ACCESS:          0  HIT:          0  MISS:          0  HIT %:       -nan  MISS %:       -nan   MPKI: 0
PSCL3 PREFETCH  ACCESS:          0  HIT:          0  MISS:          0  HIT %:       -nan  MISS %:       -nan   MPKI: 0
PSCL3 WRITEBACK ACCESS:          0  HIT:          0  MISS:          0  HIT %:       -nan  MISS %:       -nan   MPKI: 0
PSCL2 TOTAL     ACCESS:     456759  HIT:     456750  MISS:          9  HIT %:     99.998  MISS %:  0.0019704   MPKI: 4.5e-05
PSCL2 LOAD      ACCESS:          0  HIT:          0  MISS:          0  HIT %:       -nan  MISS %:       -nan   MPKI: 0
PSCL2 RFO       ACCESS:          0  HIT:          0  MISS:          0  HIT %:       -nan  MISS %:       -nan   MPKI: 0
PSCL2 PREFETCH  ACCESS:          0  HIT:          0  MISS:          0  HIT %:       -nan  MISS %:       -nan   MPKI: 0
PSCL2 WRITEBACK ACCESS:          0  HIT:          0  MISS:          0  HIT %:       -nan  MISS %:       -nan   MPKI: 0
LLC TOTAL     ACCESS:     316138  HIT:      49917  MISS:     266221  HIT %:    15.7896  MISS %:    84.2104   MPKI: 1.3311
LLC LOAD      ACCESS:       2762  HIT:          0  MISS:       2762  HIT %:          0  MISS %:        100   MPKI: 0.01381
LLC RFO       ACCESS:      53752  HIT:          0  MISS:      53752  HIT %:          0  MISS %:        100   MPKI: 0.26876
LLC PREFETCH  ACCESS:     204414  HIT:          0  MISS:     204414  HIT %:          0  MISS %:        100   MPKI: 1.02207
LLC WRITEBACK ACCESS:      54692  HIT:      49917  MISS:       4775  HIT %:    91.2693  MISS %:    8.73071   MPKI: 0.023875

RAW hits: 2695431
Loads Generated: 28239581
Loads sent to L1D: 25544150
Stores Generated: 10320384
Stores sent to L1D: 10320384

Region of Interest Statistics

CPU 0 cumulative IPC: 0.832886 instructions: 200000003 cycles: 240128837
ITLB TOTAL     ACCESS:   35859355  HIT:   35859355  MISS:          0  HIT %:        100  MISS %:          0   MPKI: 0
ITLB LOAD TRANSLATION ACCESS:   35859355  HIT:   35859355  MISS:          0  HIT %:        100  MISS %:          0   MPKI: 0
ITLB PREFETCH  REQUESTED:          0  ISSUED:          0  USEFUL:          0  USELESS:          0
ITLB USEFUL LOAD PREFETCHES:          0 PREFETCH ISSUED TO LOWER LEVEL:          0  ACCURACY: -nan
ITLB TIMELY PREFETCHES:          0 LATE PREFETCHES: 0 DROPPED PREFETCHES: 0
ITLB PREFETCHES SAME FILL-ORIGIN LEVEL: 0 DIFFERENT FILL-ORIGIN LEVEL: 0
ITLB AVERAGE MISS LATENCY: -nan cycles
ITLB RQ	ACCESS:   38391954	FORWARD:          0	MERGED:    2529323	TO_CACHE:   35862631

DTLB TOTAL     ACCESS:   26362912  HIT:   26358831  MISS:       4081  HIT %:    99.9845  MISS %:  0.0154801   MPKI: 0.020405
DTLB LOAD TRANSLATION ACCESS:   26362912  HIT:   26358831  MISS:       4081  HIT %:    99.9845  MISS %:  0.0154801   MPKI: 0.020405
DTLB PREFETCH  REQUESTED:          0  ISSUED:          0  USEFUL:          0  USELESS:          0
DTLB USEFUL LOAD PREFETCHES:          0 PREFETCH ISSUED TO LOWER LEVEL:          0  ACCURACY: -nan
DTLB TIMELY PREFETCHES:          0 LATE PREFETCHES: 0 DROPPED PREFETCHES: 0
DTLB PREFETCHES SAME FILL-ORIGIN LEVEL: 0 DIFFERENT FILL-ORIGIN LEVEL: 0
DTLB AVERAGE MISS LATENCY: 125.562 cycles
DTLB RQ	ACCESS:   29734272	FORWARD:          0	MERGED:    3369021	TO_CACHE:   26365251

STLB TOTAL     ACCESS:    3939580  HIT:    3935498  MISS:       4082  HIT %:    99.8964  MISS %:   0.103615   MPKI: 0.02041
STLB LOAD TRANSLATION ACCESS:       4081  HIT:          0  MISS:       4081  HIT %:          0  MISS %:        100   MPKI: 0.020405
STLB TRANSLATION FROM L1D PREFETCHER ACCESS:    3935499  HIT:    3935498  MISS:          1  HIT %:        100  MISS %: 2.54097e-05   MPKI: 5e-06
STLB PREFETCH  REQUESTED:          0  ISSUED:          0  USEFUL:          1  USELESS:          0
STLB USEFUL LOAD PREFETCHES:          1 PREFETCH ISSUED TO LOWER LEVEL:          0  ACCURACY: inf
STLB TIMELY PREFETCHES:          1 LATE PREFETCHES: 234 DROPPED PREFETCHES: 449751
STLB PREFETCHES SAME FILL-ORIGIN LEVEL: 0 DIFFERENT FILL-ORIGIN LEVEL: 0
STLB AVERAGE MISS LATENCY: 116.975 cycles
STLB RQ	ACCESS:   24395295	FORWARD:          0	MERGED:   20002441	TO_CACHE:    4392854

STLB Hit, L1D data hit: 0
STLB Hit, L2C data hit: 0
STLB Hit, LLC data hit: 0
STLB Hit, LLC data miss: 0
STLB STLB hints to L2: 0
L1D TOTAL     ACCESS:   48850210  HIT:   48589269  MISS:     260941  HIT %:    99.4658  MISS %:   0.534166   MPKI: 1.3047
L1D LOAD      ACCESS:   19409261  HIT:   19405906  MISS:       3355  HIT %:    99.9827  MISS %:  0.0172856   MPKI: 0.016775
L1D RFO       ACCESS:   10316293  HIT:   10262541  MISS:      53752  HIT %:     99.479  MISS %:    0.52104   MPKI: 0.26876
L1D PREFETCH  ACCESS:   19124656  HIT:   18920822  MISS:     203834  HIT %:    98.9342  MISS %:    1.06582   MPKI: 1.01917
L1D PREFETCH  REQUESTED:   51936531  ISSUED:   51936496  USEFUL:     203849  USELESS:          0
L1D USEFUL LOAD PREFETCHES:     203849 PREFETCH ISSUED TO LOWER LEVEL:    3939772  ACCURACY: 5.17413
L1D TIMELY PREFETCHES:     203849 LATE PREFETCHES: 388 DROPPED PREFETCHES: 1465652
L1D PREFETCHES SAME FILL-ORIGIN LEVEL: 204242 DIFFERENT FILL-ORIGIN LEVEL: 3735530
L1D AVERAGE MISS LATENCY: 107.694 cycles
L1D RQ	ACCESS:   25546424	FORWARD:          0	MERGED:    6118944	TO_CACHE:   19412991
L1D WQ	ACCESS:   10321281	FORWARD:      14489	MERGED:          0	TO_CACHE:   10321281
L1D PQ	ACCESS:   27545283	FORWARD:          0	MERGED:    3154070	TO_CACHE:   24391213

L1D UNIQUE REGIONS ACCESSED: 0
L1D REGIONS CONFLICTS: 0
L1D Cross Page Prefetch Requests: 2593948
L1D Same Page Prefetch Requests: 35486182
L1D ROI Sum of L1D PQ occupancy: 330831269
L1D PREFETCHES PUSHED FROM L2C: 0
L1I TOTAL     ACCESS:   38388456  HIT:   38388456  MISS:          0  HIT %:        100  MISS %:          0   MPKI: 0
L1I LOAD      ACCESS:   38388456  HIT:   38388456  MISS:          0  HIT %:        100  MISS %:          0   MPKI: 0
L1I PREFETCH  REQUESTED:          0  ISSUED:          0  USEFUL:          0  USELESS:          0
L1I USEFUL LOAD PREFETCHES:          0 PREFETCH ISSUED TO LOWER LEVEL:          0  ACCURACY: -nan
L1I TIMELY PREFETCHES:          0 LATE PREFETCHES: 0 DROPPED PREFETCHES: 0
L1I PREFETCHES SAME FILL-ORIGIN LEVEL: 0 DIFFERENT FILL-ORIGIN LEVEL: 0
L1I AVERAGE MISS LATENCY: -nan cycles
L1I RQ	ACCESS:   54939184	FORWARD:          0	MERGED:   16547230	TO_CACHE:   38391954

BTB TOTAL     ACCESS:   33592223  HIT:   33592209  MISS:         14  HIT %:        100  MISS %: 4.16763e-05   MPKI: 7e-05
BTB BRANCH_DIRECT_JUMP	ACCESS:    8099564  HIT:    8099559  MISS:          5
BTB BRANCH_INDIRECT	ACCESS:          0  HIT:          0  MISS:          0
BTB BRANCH_CONDITIONAL	ACCESS:   23772597  HIT:   23772590  MISS:          7
BTB BRANCH_DIRECT_CALL	ACCESS:     860031  HIT:     860030  MISS:          1
BTB BRANCH_INDIRECT_CALL	ACCESS:          0  HIT:          0  MISS:          0
BTB BRANCH_RETURN	ACCESS:     860031  HIT:     860030  MISS:          1
BTB BRANCH_OTHER ACCESS:          0  HIT:          0  MISS:          0

L2C TOTAL     ACCESS:    4429090  HIT:    4157857  MISS:     271233  HIT %:    93.8761  MISS %:     6.1239   MPKI: 1.35616
L2C LOAD      ACCESS:       2967  HIT:        115  MISS:       2852  HIT %:    3.87597  MISS %:     96.124   MPKI: 0.01426
L2C DATA LOAD MPKI: 0.01426
L2C INSTRUCTION LOAD MPKI: 0
L2C RFO       ACCESS:      53752  HIT:          0  MISS:      53752  HIT %:          0  MISS %:        100   MPKI: 0.26876
L2C PREFETCH  ACCESS:    3864524  HIT:    3660177  MISS:     204347  HIT %:    94.7122  MISS %:    5.28777   MPKI: 1.02173
L2C DATA PREFETCH MPKI: 1.02173
L2C INSTRUCTION PREFETCH MPKI: 0
L2C WRITEBACK ACCESS:      53780  HIT:      44019  MISS:       9761  HIT %:    81.8501  MISS %:    18.1499   MPKI: 0.048805
L2C LOAD TRANSLATION ACCESS:       4081  HIT:       3971  MISS:        110  HIT %:    97.3046  MISS %:    2.69542   MPKI: 0.00055
L2C TRANSLATION FROM L1D PREFETCHER ACCESS:     449986  HIT:     449575  MISS:        411  HIT %:    99.9087  MISS %:  0.0913362   MPKI: 0.002055
L2C PREFETCH  REQUESTED:          0  ISSUED:          0  USEFUL:        526  USELESS:     203204
L2C USEFUL LOAD PREFETCHES:        526 PREFETCH ISSUED TO LOWER LEVEL:     204470  ACCURACY: 0.25725
L2C TIMELY PREFETCHES:        526 LATE PREFETCHES: 87 DROPPED PREFETCHES: 0
L2C PREFETCHES SAME FILL-ORIGIN LEVEL: 100294 DIFFERENT FILL-ORIGIN LEVEL: 0
L2C AVERAGE MISS LATENCY: 146.596 cycles
L2C RQ	ACCESS:     510793	FORWARD:          0	MERGED:          0	TO_CACHE:     510793
L2C WQ	ACCESS:      53780	FORWARD:          0	MERGED:          0	TO_CACHE:      53780
L2C PQ	ACCESS:    3939772	FORWARD:          0	MERGED:        493	TO_CACHE:    3939279

L2C Instructions Evicting Data 0
L2C Translations Evicting Data 521
L2C Data Evicting Data 260494
L2C Instructions Evicting Instructions 0
L2C Translations Evicting Instructions 0
L2C Data Evicting Instructions 0
L2C Instructions Evicting Translations 0
L2C Translations Evicting Translations 0
L2C Data Evicting Translations 499
L2C Dense regions hint from L2: 0
PSCL5 TOTAL     ACCESS:     454067  HIT:     454067  MISS:          0  HIT %:        100  MISS %:          0   MPKI: 0
PSCL5 LOAD TRANSLATION ACCESS:       4081  HIT:       4081  MISS:          0  HIT %:        100  MISS %:          0   MPKI: 0
PSCL5 TRANSLATION FROM L1D PREFETCHER ACCESS:     449986  HIT:     449986  MISS:          0  HIT %:        100  MISS %:          0   MPKI: 0
PSCL5 PREFETCH  REQUESTED:          0  ISSUED:          0  USEFUL:          0  USELESS:          0
PSCL5 USEFUL LOAD PREFETCHES:          0 PREFETCH ISSUED TO LOWER LEVEL:          0  ACCURACY: -nan
PSCL5 TIMELY PREFETCHES:          0 LATE PREFETCHES: 0 DROPPED PREFETCHES: 0
PSCL5 PREFETCHES SAME FILL-ORIGIN LEVEL: 0 DIFFERENT FILL-ORIGIN LEVEL: 0

PSCL4 TOTAL     ACCESS:     454067  HIT:     454067  MISS:          0  HIT %:        100  MISS %:          0   MPKI: 0
PSCL4 LOAD TRANSLATION ACCESS:       4081  HIT:       4081  MISS:          0  HIT %:        100  MISS %:          0   MPKI: 0
PSCL4 TRANSLATION FROM L1D PREFETCHER ACCESS:     449986  HIT:     449986  MISS:          0  HIT %:        100  MISS %:          0   MPKI: 0
PSCL4 PREFETCH  REQUESTED:          0  ISSUED:          0  USEFUL:          0  USELESS:          0
PSCL4 USEFUL LOAD PREFETCHES:          0 PREFETCH ISSUED TO LOWER LEVEL:          0  ACCURACY: -nan
PSCL4 TIMELY PREFETCHES:          0 LATE PREFETCHES: 0 DROPPED PREFETCHES: 0
PSCL4 PREFETCHES SAME FILL-ORIGIN LEVEL: 0 DIFFERENT FILL-ORIGIN LEVEL: 0

PSCL3 TOTAL     ACCESS:     454067  HIT:     454067  MISS:          0  HIT %:        100  MISS %:          0   MPKI: 0
PSCL3 LOAD TRANSLATION ACCESS:       4081  HIT:       4081  MISS:          0  HIT %:        100  MISS %:          0   MPKI: 0
PSCL3 TRANSLATION FROM L1D PREFETCHER ACCESS:     449986  HIT:     449986  MISS:          0  HIT %:        100  MISS %:          0   MPKI: 0
PSCL3 PREFETCH  REQUESTED:          0  ISSUED:          0  USEFUL:          0  USELESS:          0
PSCL3 USEFUL LOAD PREFETCHES:          0 PREFETCH ISSUED TO LOWER LEVEL:          0  ACCURACY: -nan
PSCL3 TIMELY PREFETCHES:          0 LATE PREFETCHES: 0 DROPPED PREFETCHES: 0
PSCL3 PREFETCHES SAME FILL-ORIGIN LEVEL: 0 DIFFERENT FILL-ORIGIN LEVEL: 0

PSCL2 TOTAL     ACCESS:     453155  HIT:     453146  MISS:          9  HIT %:     99.998  MISS %: 0.00198608   MPKI: 4.5e-05
PSCL2 LOAD TRANSLATION ACCESS:       4081  HIT:       4072  MISS:          9  HIT %:    99.7795  MISS %:   0.220534   MPKI: 4.5e-05
PSCL2 TRANSLATION FROM L1D PREFETCHER ACCESS:     449074  HIT:     449074  MISS:          0  HIT %:        100  MISS %:          0   MPKI: 0
PSCL2 PREFETCH  REQUESTED:          0  ISSUED:          0  USEFUL:          0  USELESS:          0
PSCL2 USEFUL LOAD PREFETCHES:          0 PREFETCH ISSUED TO LOWER LEVEL:          0  ACCURACY: -nan
PSCL2 TIMELY PREFETCHES:          0 LATE PREFETCHES: 0 DROPPED PREFETCHES: 0
PSCL2 PREFETCHES SAME FILL-ORIGIN LEVEL: 0 DIFFERENT FILL-ORIGIN LEVEL: 0

LLC TOTAL     ACCESS:     316290  HIT:      49946  MISS:     266344  HIT %:    15.7912  MISS %:    84.2088   MPKI: 1.33172
LLC LOAD      ACCESS:       2765  HIT:          0  MISS:       2765  HIT %:          0  MISS %:        100   MPKI: 0.013825
LLC RFO       ACCESS:      53752  HIT:          0  MISS:      53752  HIT %:          0  MISS %:        100   MPKI: 0.26876
LLC PREFETCH  ACCESS:     204434  HIT:          0  MISS:     204434  HIT %:          0  MISS %:        100   MPKI: 1.02217
LLC WRITEBACK ACCESS:      54818  HIT:      49946  MISS:       4872  HIT %:    91.1124  MISS %:    8.88759   MPKI: 0.02436
LLC LOAD TRANSLATION ACCESS:        110  HIT:          0  MISS:        110  HIT %:          0  MISS %:        100   MPKI: 0.00055
LLC TRANSLATION FROM L1D PREFETCHER ACCESS:        411  HIT:          0  MISS:        411  HIT %:          0  MISS %:        100   MPKI: 0.002055
LLC PREFETCH  REQUESTED:          0  ISSUED:          0  USEFUL:          0  USELESS:     817190
LLC USEFUL LOAD PREFETCHES:          0 PREFETCH ISSUED TO LOWER LEVEL:     817792  ACCURACY: 0
LLC TIMELY PREFETCHES:          0 LATE PREFETCHES: 0 DROPPED PREFETCHES: 0
LLC PREFETCHES SAME FILL-ORIGIN LEVEL: 0 DIFFERENT FILL-ORIGIN LEVEL: 0
LLC AVERAGE MISS LATENCY: 462.274 cycles
LLC RQ	ACCESS:     228176	FORWARD:          0	MERGED:          0	TO_CACHE:     228176
LLC WQ	ACCESS:     219135	FORWARD:          0	MERGED:          0	TO_CACHE:     219135
LLC PQ	ACCESS:     817792	FORWARD:          0	MERGED:          0	TO_CACHE:     817792

LLC Dense regions hint to LLC: 0

RAW hits: 2695439
Loads Generated: 28239589
Loads sent to L1D: 25544150
Stores Generated: 10320384
Stores sent to L1D: 10320386
Major fault: 0 Minor fault: 5139
Allocated PAGES: 20556

CPU 1 cumulative IPC: 0.832877 instructions: 200000003 cycles: 240131385
ITLB TOTAL     ACCESS:   35859353  HIT:   35859353  MISS:          0  HIT %:        100  MISS %:          0   MPKI: 0
ITLB LOAD TRANSLATION ACCESS:   35859353  HIT:   35859353  MISS:          0  HIT %:        100  MISS %:          0   MPKI: 0
ITLB PREFETCH  REQUESTED:          0  ISSUED:          0  USEFUL:          0  USELESS:          0
ITLB USEFUL LOAD PREFETCHES:          0 PREFETCH ISSUED TO LOWER LEVEL:          0  ACCURACY: -nan
ITLB TIMELY PREFETCHES:          0 LATE PREFETCHES: 0 DROPPED PREFETCHES: 0
ITLB PREFETCHES SAME FILL-ORIGIN LEVEL: 0 DIFFERENT FILL-ORIGIN LEVEL: 0
ITLB AVERAGE MISS LATENCY: -nan cycles
ITLB RQ	ACCESS:   38391455	FORWARD:          0	MERGED:    2529293	TO_CACHE:   35862162

DTLB TOTAL     ACCESS:   26362904  HIT:   26358825  MISS:       4079  HIT %:    99.9845  MISS %:  0.0154725   MPKI: 0.020395
DTLB LOAD TRANSLATION ACCESS:   26362904  HIT:   26358825  MISS:       4079  HIT %:    99.9845  MISS %:  0.0154725   MPKI: 0.020395
DTLB PREFETCH  REQUESTED:          0  ISSUED:          0  USEFUL:          0  USELESS:          0
DTLB USEFUL LOAD PREFETCHES:          0 PREFETCH ISSUED TO LOWER LEVEL:          0  ACCURACY: -nan
DTLB TIMELY PREFETCHES:          0 LATE PREFETCHES: 0 DROPPED PREFETCHES: 0
DTLB PREFETCHES SAME FILL-ORIGIN LEVEL: 0 DIFFERENT FILL-ORIGIN LEVEL: 0
DTLB AVERAGE MISS LATENCY: 125.674 cycles
DTLB RQ	ACCESS:   29733880	FORWARD:          0	MERGED:    3368959	TO_CACHE:   26364921

STLB TOTAL     ACCESS:    3930697  HIT:    3926618  MISS:       4079  HIT %:    99.8962  MISS %:   0.103773   MPKI: 0.020395
STLB LOAD TRANSLATION ACCESS:       4079  HIT:          0  MISS:       4079  HIT %:          0  MISS %:        100   MPKI: 0.020395
STLB TRANSLATION FROM L1D PREFETCHER ACCESS:    3926618  HIT:    3926618  MISS:          0  HIT %:        100  MISS %:          0   MPKI: 0
STLB PREFETCH  REQUESTED:          0  ISSUED:          0  USEFUL:          1  USELESS:          0
STLB USEFUL LOAD PREFETCHES:          1 PREFETCH ISSUED TO LOWER LEVEL:          0  ACCURACY: inf
STLB TIMELY PREFETCHES:          1 LATE PREFETCHES: 223 DROPPED PREFETCHES: 443566
STLB PREFETCHES SAME FILL-ORIGIN LEVEL: 0 DIFFERENT FILL-ORIGIN LEVEL: 0
STLB AVERAGE MISS LATENCY: 117.09 cycles
STLB RQ	ACCESS:   24375308	FORWARD:          0	MERGED:   19997789	TO_CACHE:    4377519

STLB Hit, L1D data hit: 0
STLB Hit, L2C data hit: 0
STLB Hit, LLC data hit: 0
STLB Hit, LLC data miss: 0
STLB STLB hints to L2: 0
L1D TOTAL     ACCESS:   48846995  HIT:   48586065  MISS:     260930  HIT %:    99.4658  MISS %:   0.534178   MPKI: 1.30465
L1D LOAD      ACCESS:   19409287  HIT:   19405962  MISS:       3325  HIT %:    99.9829  MISS %:   0.017131   MPKI: 0.016625
L1D RFO       ACCESS:   10316852  HIT:   10263100  MISS:      53752  HIT %:     99.479  MISS %:   0.521012   MPKI: 0.26876
L1D PREFETCH  ACCESS:   19120856  HIT:   18917003  MISS:     203853  HIT %:    98.9339  MISS %:    1.06613   MPKI: 1.01926
L1D PREFETCH  REQUESTED:   51894223  ISSUED:   51894145  USEFUL:     203876  USELESS:          0
L1D USEFUL LOAD PREFETCHES:     203876 PREFETCH ISSUED TO LOWER LEVEL:    3931759  ACCURACY: 5.18536
L1D TIMELY PREFETCHES:     203876 LATE PREFETCHES: 393 DROPPED PREFETCHES: 1459984
L1D PREFETCHES SAME FILL-ORIGIN LEVEL: 204278 DIFFERENT FILL-ORIGIN LEVEL: 3727481
L1D AVERAGE MISS LATENCY: 103.209 cycles
L1D RQ	ACCESS:   25546102	FORWARD:          0	MERGED:    6118896	TO_CACHE:   19412727
L1D WQ	ACCESS:   10321153	FORWARD:      14479	MERGED:          0	TO_CACHE:   10321153
L1D PQ	ACCESS:   27522919	FORWARD:          0	MERGED:    3151693	TO_CACHE:   24371226

L1D UNIQUE REGIONS ACCESSED: 0
L1D REGIONS CONFLICTS: 0
L1D Cross Page Prefetch Requests: 2586931
L1D Same Page Prefetch Requests: 35457279
L1D ROI Sum of L1D PQ occupancy: 330379685
L1D PREFETCHES PUSHED FROM L2C: 0
L1I TOTAL     ACCESS:   38388455  HIT:   38388455  MISS:          0  HIT %:        100  MISS %:          0   MPKI: 0
L1I LOAD      ACCESS:   38388455  HIT:   38388455  MISS:          0  HIT %:        100  MISS %:          0   MPKI: 0
L1I PREFETCH  REQUESTED:          0  ISSUED:          0  USEFUL:          0  USELESS:          0
L1I USEFUL LOAD PREFETCHES:          0 PREFETCH ISSUED TO LOWER LEVEL:          0  ACCURACY: -nan
L1I TIMELY PREFETCHES:          0 LATE PREFETCHES: 0 DROPPED PREFETCHES: 0
L1I PREFETCHES SAME FILL-ORIGIN LEVEL: 0 DIFFERENT FILL-ORIGIN LEVEL: 0
L1I AVERAGE MISS LATENCY: -nan cycles
L1I RQ	ACCESS:   54938464	FORWARD:          0	MERGED:   16547009	TO_CACHE:   38391455

BTB TOTAL     ACCESS:   33592224  HIT:   33592209  MISS:         15  HIT %:        100  MISS %: 4.46532e-05   MPKI: 7.5e-05
BTB BRANCH_DIRECT_JUMP	ACCESS:    8099564  HIT:    8099559  MISS:          5
BTB BRANCH_INDIRECT	ACCESS:          0  HIT:          0  MISS:          0
BTB BRANCH_CONDITIONAL	ACCESS:   23772598  HIT:   23772590  MISS:          8
BTB BRANCH_DIRECT_CALL	ACCESS:     860031  HIT:     860030  MISS:          1
BTB BRANCH_INDIRECT_CALL	ACCESS:          0  HIT:          0  MISS:          0
BTB BRANCH_RETURN	ACCESS:     860031  HIT:     860030  MISS:          1
BTB BRANCH_OTHER ACCESS:          0  HIT:          0  MISS:          0

L2C TOTAL     ACCESS:    4415582  HIT:    4144220  MISS:     271362  HIT %:    93.8544  MISS %:    6.14555   MPKI: 1.35681
L2C LOAD      ACCESS:       2932  HIT:         86  MISS:       2846  HIT %:    2.93315  MISS %:    97.0668   MPKI: 0.01423
L2C DATA LOAD MPKI: 0.01423
L2C INSTRUCTION LOAD MPKI: 0
L2C RFO       ACCESS:      53752  HIT:          0  MISS:      53752  HIT %:          0  MISS %:        100   MPKI: 0.26876
L2C PREFETCH  ACCESS:    3857250  HIT:    3652916  MISS:     204334  HIT %:    94.7026  MISS %:     5.2974   MPKI: 1.02167
L2C DATA PREFETCH MPKI: 1.02167
L2C INSTRUCTION PREFETCH MPKI: 0
L2C WRITEBACK ACCESS:      53780  HIT:      43869  MISS:       9911  HIT %:    81.5712  MISS %:    18.4288   MPKI: 0.049555
L2C LOAD TRANSLATION ACCESS:       4079  HIT:       3971  MISS:        108  HIT %:    97.3523  MISS %:    2.64771   MPKI: 0.00054
L2C TRANSLATION FROM L1D PREFETCHER ACCESS:     443789  HIT:     443378  MISS:        411  HIT %:    99.9074  MISS %:  0.0926116   MPKI: 0.002055
L2C PREFETCH  REQUESTED:          0  ISSUED:          0  USEFUL:        497  USELESS:     203252
L2C USEFUL LOAD PREFETCHES:        497 PREFETCH ISSUED TO LOWER LEVEL:     204454  ACCURACY: 0.243086
L2C TIMELY PREFETCHES:        497 LATE PREFETCHES: 82 DROPPED PREFETCHES: 0
L2C PREFETCHES SAME FILL-ORIGIN LEVEL: 100628 DIFFERENT FILL-ORIGIN LEVEL: 0
L2C AVERAGE MISS LATENCY: 140.413 cycles
L2C RQ	ACCESS:     504562	FORWARD:          0	MERGED:          0	TO_CACHE:     504562
L2C WQ	ACCESS:      53780	FORWARD:          0	MERGED:          0	TO_CACHE:      53780
L2C PQ	ACCESS:    3931759	FORWARD:          0	MERGED:        429	TO_CACHE:    3931330

L2C Instructions Evicting Data 0
L2C Translations Evicting Data 521
L2C Data Evicting Data 260486
L2C Instructions Evicting Instructions 0
L2C Translations Evicting Instructions 0
L2C Data Evicting Instructions 0
L2C Instructions Evicting Translations 0
L2C Translations Evicting Translations 0
L2C Data Evicting Translations 490
L2C Dense regions hint from L2: 0
PSCL5 TOTAL     ACCESS:     447869  HIT:     447869  MISS:          0  HIT %:        100  MISS %:          0   MPKI: 0
PSCL5 LOAD TRANSLATION ACCESS:       4080  HIT:       4080  MISS:          0  HIT %:        100  MISS %:          0   MPKI: 0
PSCL5 TRANSLATION FROM L1D PREFETCHER ACCESS:     443789  HIT:     443789  MISS:          0  HIT %:        100  MISS %:          0   MPKI: 0
PSCL5 PREFETCH  REQUESTED:          0  ISSUED:          0  USEFUL:          0  USELESS:          0
PSCL5 USEFUL LOAD PREFETCHES:          0 PREFETCH ISSUED TO LOWER LEVEL:          0  ACCURACY: -nan
PSCL5 TIMELY PREFETCHES:          0 LATE PREFETCHES: 0 DROPPED PREFETCHES: 0
PSCL5 PREFETCHES SAME FILL-ORIGIN LEVEL: 0 DIFFERENT FILL-ORIGIN LEVEL: 0

PSCL4 TOTAL     ACCESS:     447869  HIT:     447869  MISS:          0  HIT %:        100  MISS %:          0   MPKI: 0
PSCL4 LOAD TRANSLATION ACCESS:       4080  HIT:       4080  MISS:          0  HIT %:        100  MISS %:          0   MPKI: 0
PSCL4 TRANSLATION FROM L1D PREFETCHER ACCESS:     443789  HIT:     443789  MISS:          0  HIT %:        100  MISS %:          0   MPKI: 0
PSCL4 PREFETCH  REQUESTED:          0  ISSUED:          0  USEFUL:          0  USELESS:          0
PSCL4 USEFUL LOAD PREFETCHES:          0 PREFETCH ISSUED TO LOWER LEVEL:          0  ACCURACY: -nan
PSCL4 TIMELY PREFETCHES:          0 LATE PREFETCHES: 0 DROPPED PREFETCHES: 0
PSCL4 PREFETCHES SAME FILL-ORIGIN LEVEL: 0 DIFFERENT FILL-ORIGIN LEVEL: 0

PSCL3 TOTAL     ACCESS:     447869  HIT:     447869  MISS:          0  HIT %:        100  MISS %:          0   MPKI: 0
PSCL3 LOAD TRANSLATION ACCESS:       4080  HIT:       4080  MISS:          0  HIT %:        100  MISS %:          0   MPKI: 0
PSCL3 TRANSLATION FROM L1D PREFETCHER ACCESS:     443789  HIT:     443789  MISS:          0  HIT %:        100  MISS %:          0   MPKI: 0
PSCL3 PREFETCH  REQUESTED:          0  ISSUED:          0  USEFUL:          0  USELESS:          0
PSCL3 USEFUL LOAD PREFETCHES:          0 PREFETCH ISSUED TO LOWER LEVEL:          0  ACCURACY: -nan
PSCL3 TIMELY PREFETCHES:          0 LATE PREFETCHES: 0 DROPPED PREFETCHES: 0
PSCL3 PREFETCHES SAME FILL-ORIGIN LEVEL: 0 DIFFERENT FILL-ORIGIN LEVEL: 0

PSCL2 TOTAL     ACCESS:     446939  HIT:     446930  MISS:          9  HIT %:     99.998  MISS %:  0.0020137   MPKI: 4.5e-05
PSCL2 LOAD TRANSLATION ACCESS:       4080  HIT:       4071  MISS:          9  HIT %:    99.7794  MISS %:   0.220588   MPKI: 4.5e-05
PSCL2 TRANSLATION FROM L1D PREFETCHER ACCESS:     442859  HIT:     442859  MISS:          0  HIT %:        100  MISS %:          0   MPKI: 0
PSCL2 PREFETCH  REQUESTED:          0  ISSUED:          0  USEFUL:          0  USELESS:          0
PSCL2 USEFUL LOAD PREFETCHES:          0 PREFETCH ISSUED TO LOWER LEVEL:          0  ACCURACY: -nan
PSCL2 TIMELY PREFETCHES:          0 LATE PREFETCHES: 0 DROPPED PREFETCHES: 0
PSCL2 PREFETCHES SAME FILL-ORIGIN LEVEL: 0 DIFFERENT FILL-ORIGIN LEVEL: 0

LLC TOTAL     ACCESS:     316270  HIT:      50142  MISS:     266128  HIT %:    15.8542  MISS %:    84.1458   MPKI: 1.33064
LLC LOAD      ACCESS:       2764  HIT:          0  MISS:       2764  HIT %:          0  MISS %:        100   MPKI: 0.01382
LLC RFO       ACCESS:      53752  HIT:          0  MISS:      53752  HIT %:          0  MISS %:        100   MPKI: 0.26876
LLC PREFETCH  ACCESS:     204416  HIT:          0  MISS:     204416  HIT %:          0  MISS %:        100   MPKI: 1.02208
LLC WRITEBACK ACCESS:      54819  HIT:      50142  MISS:       4677  HIT %:    91.4683  MISS %:    8.53171   MPKI: 0.023385
LLC LOAD TRANSLATION ACCESS:        108  HIT:          0  MISS:        108  HIT %:          0  MISS %:        100   MPKI: 0.00054
LLC TRANSLATION FROM L1D PREFETCHER ACCESS:        411  HIT:          0  MISS:        411  HIT %:          0  MISS %:        100   MPKI: 0.002055
LLC PREFETCH  REQUESTED:          0  ISSUED:          0  USEFUL:          0  USELESS:     817190
LLC USEFUL LOAD PREFETCHES:          0 PREFETCH ISSUED TO LOWER LEVEL:     817792  ACCURACY: 0
LLC TIMELY PREFETCHES:          0 LATE PREFETCHES: 0 DROPPED PREFETCHES: 0
LLC PREFETCHES SAME FILL-ORIGIN LEVEL: 0 DIFFERENT FILL-ORIGIN LEVEL: 0
LLC AVERAGE MISS LATENCY: 462.649 cycles
LLC RQ	ACCESS:     228176	FORWARD:          0	MERGED:          0	TO_CACHE:     228176
LLC WQ	ACCESS:     219135	FORWARD:          0	MERGED:          0	TO_CACHE:     219135
LLC PQ	ACCESS:     817792	FORWARD:          0	MERGED:          0	TO_CACHE:     817792

LLC Dense regions hint to LLC: 0

RAW hits: 2695448
Loads Generated: 28239589
Loads sent to L1D: 25544141
Stores Generated: 10320384
Stores sent to L1D: 10320384
Major fault: 0 Minor fault: 5139
Allocated PAGES: 20556

CPU 2 cumulative IPC: 0.832868 instructions: 200000003 cycles: 240133986
ITLB TOTAL     ACCESS:   35859355  HIT:   35859355  MISS:          0  HIT %:        100  MISS %:          0   MPKI: 0
ITLB LOAD TRANSLATION ACCESS:   35859355  HIT:   35859355  MISS:          0  HIT %:        100  MISS %:          0   MPKI: 0
ITLB PREFETCH  REQUESTED:          0  ISSUED:          0  USEFUL:          0  USELESS:          0
ITLB USEFUL LOAD PREFETCHES:          0 PREFETCH ISSUED TO LOWER LEVEL:          0  ACCURACY: -nan
ITLB TIMELY PREFETCHES:          0 LATE PREFETCHES: 0 DROPPED PREFETCHES: 0
ITLB PREFETCHES SAME FILL-ORIGIN LEVEL: 0 DIFFERENT FILL-ORIGIN LEVEL: 0
ITLB AVERAGE MISS LATENCY: -nan cycles
ITLB RQ	ACCESS:   38391081	FORWARD:          0	MERGED:    2529273	TO_CACHE:   35861808

DTLB TOTAL     ACCESS:   26362922  HIT:   26358843  MISS:       4079  HIT %:    99.9845  MISS %:  0.0154725   MPKI: 0.020395
DTLB LOAD TRANSLATION ACCESS:   26362922  HIT:   26358843  MISS:       4079  HIT %:    99.9845  MISS %:  0.0154725   MPKI: 0.020395
DTLB PREFETCH  REQUESTED:          0  ISSUED:          0  USEFUL:          0  USELESS:          0
DTLB USEFUL LOAD PREFETCHES:          0 PREFETCH ISSUED TO LOWER LEVEL:          0  ACCURACY: -nan
DTLB TIMELY PREFETCHES:          0 LATE PREFETCHES: 0 DROPPED PREFETCHES: 0
DTLB PREFETCHES SAME FILL-ORIGIN LEVEL: 0 DIFFERENT FILL-ORIGIN LEVEL: 0
DTLB AVERAGE MISS LATENCY: 125.232 cycles
DTLB RQ	ACCESS:   29733611	FORWARD:          0	MERGED:    3368935	TO_CACHE:   26364676

STLB TOTAL     ACCESS:    3925365  HIT:    3921285  MISS:       4080  HIT %:    99.8961  MISS %:   0.103939   MPKI: 0.0204
STLB LOAD TRANSLATION ACCESS:       4079  HIT:          0  MISS:       4079  HIT %:          0  MISS %:        100   MPKI: 0.020395
STLB TRANSLATION FROM L1D PREFETCHER ACCESS:    3921286  HIT:    3921285  MISS:          1  HIT %:        100  MISS %: 2.55018e-05   MPKI: 5e-06
STLB PREFETCH  REQUESTED:          0  ISSUED:          0  USEFUL:          1  USELESS:          0
STLB USEFUL LOAD PREFETCHES:          1 PREFETCH ISSUED TO LOWER LEVEL:          0  ACCURACY: inf
STLB TIMELY PREFETCHES:          1 LATE PREFETCHES: 209 DROPPED PREFETCHES: 448423
STLB PREFETCHES SAME FILL-ORIGIN LEVEL: 0 DIFFERENT FILL-ORIGIN LEVEL: 0
STLB AVERAGE MISS LATENCY: 116.592 cycles
STLB RQ	ACCESS:   24398684	FORWARD:          0	MERGED:   20021565	TO_CACHE:    4377119

STLB Hit, L1D data hit: 0
STLB Hit, L2C data hit: 0
STLB Hit, LLC data hit: 0
STLB Hit, LLC data miss: 0
STLB STLB hints to L2: 0
L1D TOTAL     ACCESS:   48836248  HIT:   48575314  MISS:     260934  HIT %:    99.4657  MISS %:   0.534304   MPKI: 1.30467
L1D LOAD      ACCESS:   19409286  HIT:   19406031  MISS:       3255  HIT %:    99.9832  MISS %:  0.0167703   MPKI: 0.016275
L1D RFO       ACCESS:   10317188  HIT:   10263436  MISS:      53752  HIT %:     99.479  MISS %:   0.520995   MPKI: 0.26876
L1D PREFETCH  ACCESS:   19109774  HIT:   18905847  MISS:     203927  HIT %:    98.9329  MISS %:    1.06713   MPKI: 1.01963
L1D PREFETCH  REQUESTED:   51948221  ISSUED:   51948186  USEFUL:     203944  USELESS:          0
L1D USEFUL LOAD PREFETCHES:     203944 PREFETCH ISSUED TO LOWER LEVEL:    3959779  ACCURACY: 5.15039
L1D TIMELY PREFETCHES:     203944 LATE PREFETCHES: 386 DROPPED PREFETCHES: 1467489
L1D PREFETCHES SAME FILL-ORIGIN LEVEL: 204349 DIFFERENT FILL-ORIGIN LEVEL: 3755430
L1D AVERAGE MISS LATENCY: 101.027 cycles
L1D RQ	ACCESS:   25545862	FORWARD:          0	MERGED:    6118823	TO_CACHE:   19412555
L1D WQ	ACCESS:   10321056	FORWARD:      14484	MERGED:          0	TO_CACHE:   10321056
L1D PQ	ACCESS:   27553584	FORWARD:          0	MERGED:    3158982	TO_CACHE:   24394602

L1D UNIQUE REGIONS ACCESSED: 0
L1D REGIONS CONFLICTS: 0
L1D Cross Page Prefetch Requests: 2595276
L1D Same Page Prefetch Requests: 35478065
L1D ROI Sum of L1D PQ occupancy: 330910782
L1D PREFETCHES PUSHED FROM L2C: 0
L1I TOTAL     ACCESS:   38388461  HIT:   38388461  MISS:          0  HIT %:        100  MISS %:          0   MPKI: 0
L1I LOAD      ACCESS:   38388461  HIT:   38388461  MISS:          0  HIT %:        100  MISS %:          0   MPKI: 0
L1I PREFETCH  REQUESTED:          0  ISSUED:          0  USEFUL:          0  USELESS:          0
L1I USEFUL LOAD PREFETCHES:          0 PREFETCH ISSUED TO LOWER LEVEL:          0  ACCURACY: -nan
L1I TIMELY PREFETCHES:          0 LATE PREFETCHES: 0 DROPPED PREFETCHES: 0
L1I PREFETCHES SAME FILL-ORIGIN LEVEL: 0 DIFFERENT FILL-ORIGIN LEVEL: 0
L1I AVERAGE MISS LATENCY: -nan cycles
L1I RQ	ACCESS:   54937952	FORWARD:          0	MERGED:   16546871	TO_CACHE:   38391081

BTB TOTAL     ACCESS:   33592227  HIT:   33592209  MISS:         18  HIT %:    99.9999  MISS %: 5.35838e-05   MPKI: 9e-05
BTB BRANCH_DIRECT_JUMP	ACCESS:    8099565  HIT:    8099559  MISS:          6
BTB BRANCH_INDIRECT	ACCESS:          0  HIT:          0  MISS:          0
BTB BRANCH_CONDITIONAL	ACCESS:   23772600  HIT:   23772590  MISS:         10
BTB BRANCH_DIRECT_CALL	ACCESS:     860031  HIT:     860030  MISS:          1
BTB BRANCH_INDIRECT_CALL	ACCESS:          0  HIT:          0  MISS:          0
BTB BRANCH_RETURN	ACCESS:     860031  HIT:     860030  MISS:          1
BTB BRANCH_OTHER ACCESS:          0  HIT:          0  MISS:          0

L2C TOTAL     ACCESS:    4448870  HIT:    4177613  MISS:     271257  HIT %:    93.9028  MISS %:    6.09721   MPKI: 1.35628
L2C LOAD      ACCESS:       2869  HIT:         16  MISS:       2853  HIT %:   0.557686  MISS %:    99.4423   MPKI: 0.014265
L2C DATA LOAD MPKI: 0.014265
L2C INSTRUCTION LOAD MPKI: 0
L2C RFO       ACCESS:      53752  HIT:          0  MISS:      53752  HIT %:          0  MISS %:        100   MPKI: 0.26876
L2C PREFETCH  ACCESS:    3885757  HIT:    3681425  MISS:     204332  HIT %:    94.7415  MISS %:    5.25849   MPKI: 1.02166
L2C DATA PREFETCH MPKI: 1.02166
L2C INSTRUCTION PREFETCH MPKI: 0
L2C WRITEBACK ACCESS:      53780  HIT:      43981  MISS:       9799  HIT %:    81.7795  MISS %:    18.2205   MPKI: 0.048995
L2C LOAD TRANSLATION ACCESS:       4079  HIT:       3969  MISS:        110  HIT %:    97.3033  MISS %:    2.69674   MPKI: 0.00055
L2C TRANSLATION FROM L1D PREFETCHER ACCESS:     448633  HIT:     448222  MISS:        411  HIT %:    99.9084  MISS %:  0.0916116   MPKI: 0.002055
L2C PREFETCH  REQUESTED:          0  ISSUED:          0  USEFUL:        427  USELESS:     203345
L2C USEFUL LOAD PREFETCHES:        427 PREFETCH ISSUED TO LOWER LEVEL:     204454  ACCURACY: 0.208849
L2C TIMELY PREFETCHES:        427 LATE PREFETCHES: 78 DROPPED PREFETCHES: 0
L2C PREFETCHES SAME FILL-ORIGIN LEVEL: 100695 DIFFERENT FILL-ORIGIN LEVEL: 0
L2C AVERAGE MISS LATENCY: 137.511 cycles
L2C RQ	ACCESS:     509342	FORWARD:          0	MERGED:          0	TO_CACHE:     509342
L2C WQ	ACCESS:      53780	FORWARD:          0	MERGED:          0	TO_CACHE:      53780
L2C PQ	ACCESS:    3959779	FORWARD:          0	MERGED:        435	TO_CACHE:    3959344

L2C Instructions Evicting Data 0
L2C Translations Evicting Data 523
L2C Data Evicting Data 260487
L2C Instructions Evicting Instructions 0
L2C Translations Evicting Instructions 0
L2C Data Evicting Instructions 0
L2C Instructions Evicting Translations 0
L2C Translations Evicting Translations 0
L2C Data Evicting Translations 500
L2C Dense regions hint from L2: 0
PSCL5 TOTAL     ACCESS:     452713  HIT:     452713  MISS:          0  HIT %:        100  MISS %:          0   MPKI: 0
PSCL5 LOAD TRANSLATION ACCESS:       4080  HIT:       4080  MISS:          0  HIT %:        100  MISS %:          0   MPKI: 0
PSCL5 TRANSLATION FROM L1D PREFETCHER ACCESS:     448633  HIT:     448633  MISS:          0  HIT %:        100  MISS %:          0   MPKI: 0
PSCL5 PREFETCH  REQUESTED:          0  ISSUED:          0  USEFUL:          0  USELESS:          0
PSCL5 USEFUL LOAD PREFETCHES:          0 PREFETCH ISSUED TO LOWER LEVEL:          0  ACCURACY: -nan
PSCL5 TIMELY PREFETCHES:          0 LATE PREFETCHES: 0 DROPPED PREFETCHES: 0
PSCL5 PREFETCHES SAME FILL-ORIGIN LEVEL: 0 DIFFERENT FILL-ORIGIN LEVEL: 0

PSCL4 TOTAL     ACCESS:     452713  HIT:     452713  MISS:          0  HIT %:        100  MISS %:          0   MPKI: 0
PSCL4 LOAD TRANSLATION ACCESS:       4080  HIT:       4080  MISS:          0  HIT %:        100  MISS %:          0   MPKI: 0
PSCL4 TRANSLATION FROM L1D PREFETCHER ACCESS:     448633  HIT:     448633  MISS:          0  HIT %:        100  MISS %:          0   MPKI: 0
PSCL4 PREFETCH  REQUESTED:          0  ISSUED:          0  USEFUL:          0  USELESS:          0
PSCL4 USEFUL LOAD PREFETCHES:          0 PREFETCH ISSUED TO LOWER LEVEL:          0  ACCURACY: -nan
PSCL4 TIMELY PREFETCHES:          0 LATE PREFETCHES: 0 DROPPED PREFETCHES: 0
PSCL4 PREFETCHES SAME FILL-ORIGIN LEVEL: 0 DIFFERENT FILL-ORIGIN LEVEL: 0

PSCL3 TOTAL     ACCESS:     452713  HIT:     452713  MISS:          0  HIT %:        100  MISS %:          0   MPKI: 0
PSCL3 LOAD TRANSLATION ACCESS:       4080  HIT:       4080  MISS:          0  HIT %:        100  MISS %:          0   MPKI: 0
PSCL3 TRANSLATION FROM L1D PREFETCHER ACCESS:     448633  HIT:     448633  MISS:          0  HIT %:        100  MISS %:          0   MPKI: 0
PSCL3 PREFETCH  REQUESTED:          0  ISSUED:          0  USEFUL:          0  USELESS:          0
PSCL3 USEFUL LOAD PREFETCHES:          0 PREFETCH ISSUED TO LOWER LEVEL:          0  ACCURACY: -nan
PSCL3 TIMELY PREFETCHES:          0 LATE PREFETCHES: 0 DROPPED PREFETCHES: 0
PSCL3 PREFETCHES SAME FILL-ORIGIN LEVEL: 0 DIFFERENT FILL-ORIGIN LEVEL: 0

PSCL2 TOTAL     ACCESS:     451896  HIT:     451887  MISS:          9  HIT %:     99.998  MISS %: 0.00199161   MPKI: 4.5e-05
PSCL2 LOAD TRANSLATION ACCESS:       4080  HIT:       4071  MISS:          9  HIT %:    99.7794  MISS %:   0.220588   MPKI: 4.5e-05
PSCL2 TRANSLATION FROM L1D PREFETCHER ACCESS:     447816  HIT:     447816  MISS:          0  HIT %:        100  MISS %:          0   MPKI: 0
PSCL2 PREFETCH  REQUESTED:          0  ISSUED:          0  USEFUL:          0  USELESS:          0
PSCL2 USEFUL LOAD PREFETCHES:          0 PREFETCH ISSUED TO LOWER LEVEL:          0  ACCURACY: -nan
PSCL2 TIMELY PREFETCHES:          0 LATE PREFETCHES: 0 DROPPED PREFETCHES: 0
PSCL2 PREFETCHES SAME FILL-ORIGIN LEVEL: 0 DIFFERENT FILL-ORIGIN LEVEL: 0

LLC TOTAL     ACCESS:     316241  HIT:      50007  MISS:     266234  HIT %:    15.8129  MISS %:    84.1871   MPKI: 1.33117
LLC LOAD      ACCESS:       2775  HIT:          0  MISS:       2775  HIT %:          0  MISS %:        100   MPKI: 0.013875
LLC RFO       ACCESS:      53752  HIT:          0  MISS:      53752  HIT %:          0  MISS %:        100   MPKI: 0.26876
LLC PREFETCH  ACCESS:     204412  HIT:          0  MISS:     204412  HIT %:          0  MISS %:        100   MPKI: 1.02206
LLC WRITEBACK ACCESS:      54781  HIT:      50005  MISS:       4776  HIT %:    91.2816  MISS %:    8.71835   MPKI: 0.02388
LLC LOAD TRANSLATION ACCESS:        110  HIT:          2  MISS:        108  HIT %:    1.81818  MISS %:    98.1818   MPKI: 0.00054
LLC TRANSLATION FROM L1D PREFETCHER ACCESS:        411  HIT:          0  MISS:        411  HIT %:          0  MISS %:        100   MPKI: 0.002055
LLC PREFETCH  REQUESTED:          0  ISSUED:          0  USEFUL:          0  USELESS:     817190
LLC USEFUL LOAD PREFETCHES:          0 PREFETCH ISSUED TO LOWER LEVEL:     817792  ACCURACY: 0
LLC TIMELY PREFETCHES:          0 LATE PREFETCHES: 0 DROPPED PREFETCHES: 0
LLC PREFETCHES SAME FILL-ORIGIN LEVEL: 0 DIFFERENT FILL-ORIGIN LEVEL: 0
LLC AVERAGE MISS LATENCY: 462.465 cycles
LLC RQ	ACCESS:     228176	FORWARD:          0	MERGED:          0	TO_CACHE:     228176
LLC WQ	ACCESS:     219135	FORWARD:          0	MERGED:          0	TO_CACHE:     219135
LLC PQ	ACCESS:     817792	FORWARD:          0	MERGED:          0	TO_CACHE:     817792

LLC Dense regions hint to LLC: 0

RAW hits: 2695444
Loads Generated: 28239599
Loads sent to L1D: 25544155
Stores Generated: 10320393
Stores sent to L1D: 10320384
Major fault: 0 Minor fault: 5139
Allocated PAGES: 20556

CPU 3 cumulative IPC: 0.832811 instructions: 200000001 cycles: 240150530
ITLB TOTAL     ACCESS:   35859358  HIT:   35859358  MISS:          0  HIT %:        100  MISS %:          0   MPKI: 0
ITLB LOAD TRANSLATION ACCESS:   35859358  HIT:   35859358  MISS:          0  HIT %:        100  MISS %:          0   MPKI: 0
ITLB PREFETCH  REQUESTED:          0  ISSUED:          0  USEFUL:          0  USELESS:          0
ITLB USEFUL LOAD PREFETCHES:          0 PREFETCH ISSUED TO LOWER LEVEL:          0  ACCURACY: -nan
ITLB TIMELY PREFETCHES:          0 LATE PREFETCHES: 0 DROPPED PREFETCHES: 0
ITLB PREFETCHES SAME FILL-ORIGIN LEVEL: 0 DIFFERENT FILL-ORIGIN LEVEL: 0
ITLB AVERAGE MISS LATENCY: -nan cycles
ITLB RQ	ACCESS:   38388456	FORWARD:          0	MERGED:    2529099	TO_CACHE:   35859357

DTLB TOTAL     ACCESS:   26362873  HIT:   26358795  MISS:       4078  HIT %:    99.9845  MISS %:  0.0154687   MPKI: 0.02039
DTLB LOAD TRANSLATION ACCESS:   26362873  HIT:   26358795  MISS:       4078  HIT %:    99.9845  MISS %:  0.0154687   MPKI: 0.02039
DTLB PREFETCH  REQUESTED:          0  ISSUED:          0  USEFUL:          0  USELESS:          0
DTLB USEFUL LOAD PREFETCHES:          0 PREFETCH ISSUED TO LOWER LEVEL:          0  ACCURACY: -nan
DTLB TIMELY PREFETCHES:          0 LATE PREFETCHES: 0 DROPPED PREFETCHES: 0
DTLB PREFETCHES SAME FILL-ORIGIN LEVEL: 0 DIFFERENT FILL-ORIGIN LEVEL: 0
DTLB AVERAGE MISS LATENCY: 125.419 cycles
DTLB RQ	ACCESS:   29731651	FORWARD:          0	MERGED:    3368757	TO_CACHE:   26362894

STLB TOTAL     ACCESS:    3921796  HIT:    3917718  MISS:       4078  HIT %:     99.896  MISS %:   0.103983   MPKI: 0.02039
STLB LOAD TRANSLATION ACCESS:       4078  HIT:          0  MISS:       4078  HIT %:          0  MISS %:        100   MPKI: 0.02039
STLB TRANSLATION FROM L1D PREFETCHER ACCESS:    3917718  HIT:    3917718  MISS:          0  HIT %:        100  MISS %:          0   MPKI: 0
STLB PREFETCH  REQUESTED:          0  ISSUED:          0  USEFUL:          0  USELESS:          0
STLB USEFUL LOAD PREFETCHES:          0 PREFETCH ISSUED TO LOWER LEVEL:          0  ACCURACY: -nan
STLB TIMELY PREFETCHES:          0 LATE PREFETCHES: 237 DROPPED PREFETCHES: 453270
STLB PREFETCHES SAME FILL-ORIGIN LEVEL: 0 DIFFERENT FILL-ORIGIN LEVEL: 0
STLB AVERAGE MISS LATENCY: 116.864 cycles
STLB RQ	ACCESS:   24381871	FORWARD:          0	MERGED:   20003887	TO_CACHE:    4377984

STLB Hit, L1D data hit: 0
STLB Hit, L2C data hit: 0
STLB Hit, LLC data hit: 0
STLB Hit, LLC data miss: 0
STLB STLB hints to L2: 0
L1D TOTAL     ACCESS:   48787648  HIT:   48526725  MISS:     260923  HIT %:    99.4652  MISS %:   0.534814   MPKI: 1.30461
L1D LOAD      ACCESS:   19409230  HIT:   19405944  MISS:       3286  HIT %:    99.9831  MISS %:  0.0169301   MPKI: 0.01643
L1D RFO       ACCESS:   10316696  HIT:   10262944  MISS:      53752  HIT %:     99.479  MISS %:    0.52102   MPKI: 0.26876
L1D PREFETCH  ACCESS:   19061722  HIT:   18857837  MISS:     203885  HIT %:    98.9304  MISS %:     1.0696   MPKI: 1.01942
L1D PREFETCH  REQUESTED:   51908599  ISSUED:   51908532  USEFUL:     203898  USELESS:          0
L1D USEFUL LOAD PREFETCHES:     203898 PREFETCH ISSUED TO LOWER LEVEL:    3987140  ACCURACY: 5.11389
L1D TIMELY PREFETCHES:     203898 LATE PREFETCHES: 380 DROPPED PREFETCHES: 1472192
L1D PREFETCHES SAME FILL-ORIGIN LEVEL: 204265 DIFFERENT FILL-ORIGIN LEVEL: 3782875
L1D AVERAGE MISS LATENCY: 106.056 cycles
L1D RQ	ACCESS:   25544150	FORWARD:          0	MERGED:    6118388	TO_CACHE:   19411267
L1D WQ	ACCESS:   10320384	FORWARD:      14495	MERGED:          0	TO_CACHE:   10320384
L1D PQ	ACCESS:   27530740	FORWARD:          0	MERGED:    3152948	TO_CACHE:   24377792

L1D UNIQUE REGIONS ACCESSED: 0
L1D REGIONS CONFLICTS: 0
L1D Cross Page Prefetch Requests: 2598382
L1D Same Page Prefetch Requests: 35456398
L1D ROI Sum of L1D PQ occupancy: 330764462
L1D PREFETCHES PUSHED FROM L2C: 0
L1I TOTAL     ACCESS:   38388455  HIT:   38388455  MISS:          0  HIT %:        100  MISS %:          0   MPKI: 0
L1I LOAD      ACCESS:   38388455  HIT:   38388455  MISS:          0  HIT %:        100  MISS %:          0   MPKI: 0
L1I PREFETCH  REQUESTED:          0  ISSUED:          0  USEFUL:          0  USELESS:          0
L1I USEFUL LOAD PREFETCHES:          0 PREFETCH ISSUED TO LOWER LEVEL:          0  ACCURACY: -nan
L1I TIMELY PREFETCHES:          0 LATE PREFETCHES: 0 DROPPED PREFETCHES: 0
L1I PREFETCHES SAME FILL-ORIGIN LEVEL: 0 DIFFERENT FILL-ORIGIN LEVEL: 0
L1I AVERAGE MISS LATENCY: -nan cycles
L1I RQ	ACCESS:   54934142	FORWARD:          0	MERGED:   16545686	TO_CACHE:   38388456

BTB TOTAL     ACCESS:   33592201  HIT:   33592183  MISS:         18  HIT %:    99.9999  MISS %: 5.35839e-05   MPKI: 9e-05
BTB BRANCH_DIRECT_JUMP	ACCESS:    8099559  HIT:    8099553  MISS:          6
BTB BRANCH_INDIRECT	ACCESS:          0  HIT:          0  MISS:          0
BTB BRANCH_CONDITIONAL	ACCESS:   23772582  HIT:   23772572  MISS:         10
BTB BRANCH_DIRECT_CALL	ACCESS:     860030  HIT:     860029  MISS:          1
BTB BRANCH_INDIRECT_CALL	ACCESS:          0  HIT:          0  MISS:          0
BTB BRANCH_RETURN	ACCESS:     860030  HIT:     860029  MISS:          1
BTB BRANCH_OTHER ACCESS:          0  HIT:          0  MISS:          0

L2C TOTAL     ACCESS:    4481912  HIT:    4210063  MISS:     271849  HIT %:    93.9345  MISS %:    6.06547   MPKI: 1.35924
L2C LOAD      ACCESS:       2906  HIT:         48  MISS:       2858  HIT %:    1.65175  MISS %:    98.3482   MPKI: 0.01429
L2C DATA LOAD MPKI: 0.01429
L2C INSTRUCTION LOAD MPKI: 0
L2C RFO       ACCESS:      53752  HIT:          0  MISS:      53752  HIT %:          0  MISS %:        100   MPKI: 0.26876
L2C PREFETCH  ACCESS:    3913889  HIT:    3709571  MISS:     204318  HIT %:    94.7797  MISS %:    5.22033   MPKI: 1.02159
L2C DATA PREFETCH MPKI: 1.02159
L2C INSTRUCTION PREFETCH MPKI: 0
L2C WRITEBACK ACCESS:      53780  HIT:      43377  MISS:      10403  HIT %:    80.6564  MISS %:    19.3436   MPKI: 0.052015
L2C LOAD TRANSLATION ACCESS:       4078  HIT:       3971  MISS:        107  HIT %:    97.3762  MISS %:    2.62384   MPKI: 0.000535
L2C TRANSLATION FROM L1D PREFETCHER ACCESS:     453507  HIT:     453096  MISS:        411  HIT %:    99.9094  MISS %:   0.090627   MPKI: 0.002055
L2C PREFETCH  REQUESTED:          0  ISSUED:          0  USEFUL:        459  USELESS:     203319
L2C USEFUL LOAD PREFETCHES:        459 PREFETCH ISSUED TO LOWER LEVEL:     204414  ACCURACY: 0.224544
L2C TIMELY PREFETCHES:        459 LATE PREFETCHES: 96 DROPPED PREFETCHES: 0
L2C PREFETCHES SAME FILL-ORIGIN LEVEL: 101318 DIFFERENT FILL-ORIGIN LEVEL: 0
L2C AVERAGE MISS LATENCY: 144.897 cycles
L2C RQ	ACCESS:     514244	FORWARD:          0	MERGED:          0	TO_CACHE:     514244
L2C WQ	ACCESS:      53780	FORWARD:          0	MERGED:          0	TO_CACHE:      53780
L2C PQ	ACCESS:    3987140	FORWARD:          0	MERGED:        454	TO_CACHE:    3986686

L2C Instructions Evicting Data 0
L2C Translations Evicting Data 516
L2C Data Evicting Data 260428
L2C Instructions Evicting Instructions 0
L2C Translations Evicting Instructions 0
L2C Data Evicting Instructions 0
L2C Instructions Evicting Translations 0
L2C Translations Evicting Translations 2
L2C Data Evicting Translations 500
L2C Dense regions hint from L2: 0
PSCL5 TOTAL     ACCESS:     457586  HIT:     457586  MISS:          0  HIT %:        100  MISS %:          0   MPKI: 0
PSCL5 LOAD TRANSLATION ACCESS:       4079  HIT:       4079  MISS:          0  HIT %:        100  MISS %:          0   MPKI: 0
PSCL5 TRANSLATION FROM L1D PREFETCHER ACCESS:     453507  HIT:     453507  MISS:          0  HIT %:        100  MISS %:          0   MPKI: 0
PSCL5 PREFETCH  REQUESTED:          0  ISSUED:          0  USEFUL:          0  USELESS:          0
PSCL5 USEFUL LOAD PREFETCHES:          0 PREFETCH ISSUED TO LOWER LEVEL:          0  ACCURACY: -nan
PSCL5 TIMELY PREFETCHES:          0 LATE PREFETCHES: 0 DROPPED PREFETCHES: 0
PSCL5 PREFETCHES SAME FILL-ORIGIN LEVEL: 0 DIFFERENT FILL-ORIGIN LEVEL: 0

PSCL4 TOTAL     ACCESS:     457586  HIT:     457586  MISS:          0  HIT %:        100  MISS %:          0   MPKI: 0
PSCL4 LOAD TRANSLATION ACCESS:       4079  HIT:       4079  MISS:          0  HIT %:        100  MISS %:          0   MPKI: 0
PSCL4 TRANSLATION FROM L1D PREFETCHER ACCESS:     453507  HIT:     453507  MISS:          0  HIT %:        100  MISS %:          0   MPKI: 0
PSCL4 PREFETCH  REQUESTED:          0  ISSUED:          0  USEFUL:          0  USELESS:          0
PSCL4 USEFUL LOAD PREFETCHES:          0 PREFETCH ISSUED TO LOWER LEVEL:          0  ACCURACY: -nan
PSCL4 TIMELY PREFETCHES:          0 LATE PREFETCHES: 0 DROPPED PREFETCHES: 0
PSCL4 PREFETCHES SAME FILL-ORIGIN LEVEL: 0 DIFFERENT FILL-ORIGIN LEVEL: 0

PSCL3 TOTAL     ACCESS:     457586  HIT:     457586  MISS:          0  HIT %:        100  MISS %:          0   MPKI: 0
PSCL3 LOAD TRANSLATION ACCESS:       4079  HIT:       4079  MISS:          0  HIT %:        100  MISS %:          0   MPKI: 0
PSCL3 TRANSLATION FROM L1D PREFETCHER ACCESS:     453507  HIT:     453507  MISS:          0  HIT %:        100  MISS %:          0   MPKI: 0
PSCL3 PREFETCH  REQUESTED:          0  ISSUED:          0  USEFUL:          0  USELESS:          0
PSCL3 USEFUL LOAD PREFETCHES:          0 PREFETCH ISSUED TO LOWER LEVEL:          0  ACCURACY: -nan
PSCL3 TIMELY PREFETCHES:          0 LATE PREFETCHES: 0 DROPPED PREFETCHES: 0
PSCL3 PREFETCHES SAME FILL-ORIGIN LEVEL: 0 DIFFERENT FILL-ORIGIN LEVEL: 0

PSCL2 TOTAL     ACCESS:     456759  HIT:     456750  MISS:          9  HIT %:     99.998  MISS %:  0.0019704   MPKI: 4.5e-05
PSCL2 LOAD TRANSLATION ACCESS:       4079  HIT:       4070  MISS:          9  HIT %:    99.7794  MISS %:   0.220642   MPKI: 4.5e-05
PSCL2 TRANSLATION FROM L1D PREFETCHER ACCESS:     452680  HIT:     452680  MISS:          0  HIT %:        100  MISS %:          0   MPKI: 0
PSCL2 PREFETCH  REQUESTED:          0  ISSUED:          0  USEFUL:          0  USELESS:          0
PSCL2 USEFUL LOAD PREFETCHES:          0 PREFETCH ISSUED TO LOWER LEVEL:          0  ACCURACY: -nan
PSCL2 TIMELY PREFETCHES:          0 LATE PREFETCHES: 0 DROPPED PREFETCHES: 0
PSCL2 PREFETCHES SAME FILL-ORIGIN LEVEL: 0 DIFFERENT FILL-ORIGIN LEVEL: 0

LLC TOTAL     ACCESS:     316138  HIT:      49917  MISS:     266221  HIT %:    15.7896  MISS %:    84.2104   MPKI: 1.3311
LLC LOAD      ACCESS:       2762  HIT:          0  MISS:       2762  HIT %:          0  MISS %:        100   MPKI: 0.01381
LLC RFO       ACCESS:      53752  HIT:          0  MISS:      53752  HIT %:          0  MISS %:        100   MPKI: 0.26876
LLC PREFETCH  ACCESS:     204414  HIT:          0  MISS:     204414  HIT %:          0  MISS %:        100   MPKI: 1.02207
LLC WRITEBACK ACCESS:      54692  HIT:      49917  MISS:       4775  HIT %:    91.2693  MISS %:    8.73071   MPKI: 0.023875
LLC LOAD TRANSLATION ACCESS:        107  HIT:          0  MISS:        107  HIT %:          0  MISS %:        100   MPKI: 0.000535
LLC TRANSLATION FROM L1D PREFETCHER ACCESS:        411  HIT:          0  MISS:        411  HIT %:          0  MISS %:        100   MPKI: 0.002055
LLC PREFETCH  REQUESTED:          0  ISSUED:          0  USEFUL:          0  USELESS:     817190
LLC USEFUL LOAD PREFETCHES:          0 PREFETCH ISSUED TO LOWER LEVEL:     817792  ACCURACY: 0
LLC TIMELY PREFETCHES:          0 LATE PREFETCHES: 0 DROPPED PREFETCHES: 0
LLC PREFETCHES SAME FILL-ORIGIN LEVEL: 0 DIFFERENT FILL-ORIGIN LEVEL: 0
LLC AVERAGE MISS LATENCY: 462.487 cycles
LLC RQ	ACCESS:     228176	FORWARD:          0	MERGED:          0	TO_CACHE:     228176
LLC WQ	ACCESS:     219135	FORWARD:          0	MERGED:          0	TO_CACHE:     219135
LLC PQ	ACCESS:     817792	FORWARD:          0	MERGED:          0	TO_CACHE:     817792

LLC Dense regions hint to LLC: 0

RAW hits: 2695431
Loads Generated: 28239581
Loads sent to L1D: 25544150
Stores Generated: 10320384
Stores sent to L1D: 10320384
Major fault: 0 Minor fault: 5139
Allocated PAGES: 20556

DRAM Statistics
 CHANNEL 0
 RQ ROW_BUFFER_HIT:     598737  ROW_BUFFER_MISS:     447228
 DBUS_CONGESTED:       2245
 WQ ROW_BUFFER_HIT:      30995  ROW_BUFFER_MISS:     185214  FULL:          0

 AVG_CONGESTED_CYCLE: 4
 All warmup complete: 5
Channel 0 Bank busy for read cycles: 0
Channel 0 Bank busy for write cycles: 0
Channel 0
Rank 0
0banks busy for read cycles: 138863054
0banks busy for write cycles: 146633
1banks busy for read cycles: 57043990
1banks busy for write cycles: 21466964
2banks busy for read cycles: 12663535
2banks busy for write cycles: 4922163
3banks busy for read cycles: 1844029
3banks busy for write cycles: 1114573
4banks busy for read cycles: 352905
4banks busy for write cycles: 316786
5banks busy for read cycles: 177233
5banks busy for write cycles: 148139
6banks busy for read cycles: 141194
6banks busy for write cycles: 84918
7banks busy for read cycles: 178582
7banks busy for write cycles: 54996
8banks busy for read cycles: 592122
8banks busy for write cycles: 38715

CPU 0 Branch Prediction Accuracy: 97.5394% MPKI: 7.43961 Average ROB Occupancy at Mispredict: 77.6802
Branch types
NOT_BRANCH: 139541511 69.7645%
BRANCH_DIRECT_JUMP: 8100314 4.04979%
BRANCH_INDIRECT: 0 0%
BRANCH_CONDITIONAL: 50656035 25.3257%
BRANCH_DIRECT_CALL: 860106 0.430014%
BRANCH_INDIRECT_CALL: 0 0%
BRANCH_RETURN: 860106 0.430014%
BRANCH_OTHER: 0 0%


CPU 1 Branch Prediction Accuracy: 97.5394% MPKI: 7.4396 Average ROB Occupancy at Mispredict: 77.68
Branch types
NOT_BRANCH: 139539691 69.7644%
BRANCH_DIRECT_JUMP: 8100206 4.04979%
BRANCH_INDIRECT: 0 0%
BRANCH_CONDITIONAL: 50655376 25.3257%
BRANCH_DIRECT_CALL: 860095 0.430014%
BRANCH_INDIRECT_CALL: 0 0%
BRANCH_RETURN: 860095 0.430014%
BRANCH_OTHER: 0 0%


CPU 2 Branch Prediction Accuracy: 97.5395% MPKI: 7.43956 Average ROB Occupancy at Mispredict: 77.6817
Branch types
NOT_BRANCH: 139538335 69.7644%
BRANCH_DIRECT_JUMP: 8100126 4.04978%
BRANCH_INDIRECT: 0 0%
BRANCH_CONDITIONAL: 50654879 25.3257%
BRANCH_DIRECT_CALL: 860087 0.430014%
BRANCH_INDIRECT_CALL: 0 0%
BRANCH_RETURN: 860087 0.430014%
BRANCH_OTHER: 0 0%


CPU 3 Branch Prediction Accuracy: 97.5395% MPKI: 7.43952 Average ROB Occupancy at Mispredict: 77.6827
Branch types
NOT_BRANCH: 139528689 69.7643%
BRANCH_DIRECT_JUMP: 8099559 4.04978%
BRANCH_INDIRECT: 0 0%
BRANCH_CONDITIONAL: 50651355 25.3257%
BRANCH_DIRECT_CALL: 860030 0.430015%
BRANCH_INDIRECT_CALL: 0 0%
BRANCH_RETURN: 860030 0.430015%
BRANCH_OTHER: 0 0%

DRAM PAGES: 1048576
Allocated PAGES: 20556
