
*** ChampSim Multicore Out-of-Order Simulator ***

Warmup Instructions: 50000000
Simulation Instructions: 200000000
Number of CPUs: 4
LLC sets: 8192
LLC ways: 16
Off-chip DRAM Size: 4096 MB Channels: 1 Width: 64-bit Data Rate: 6400 MT/s
CPU 0 runs ./traces/spec/433.milc-274B.champsimtrace.xz
.xz
CPU 1 runs ./traces/ligra/ligra_BFSCC.com-lj.ungraph.gcc_6.3.0_O3.drop_5000M.length_250M.champsimtrace.xz
.xz
CPU 2 runs ./traces/ligra/ligra_PageRankDelta.com-lj.ungraph.gcc_6.3.0_O3.drop_3500M.length_250M.champsimtrace.xz
.xz
CPU 3 runs ./traces/ligra/ligra_Components.com-lj.ungraph.gcc_6.3.0_O3.drop_12500M.length_250M.champsimtrace.xz
.xz
BTB has LRU replacement policy
ITLB has LRU replacement policy
DTLB has LRU replacement policy
STLB has LRU replacement policy
L1I has LRU replacement policy
History Sets: 8
History Ways: 16
BERTI Size: 16
BERTI Stride Size: 8
L1D has LRU replacement policy
Initialize SRRIP state for L2C
Initialize DRRIP state for LLC
BTB has LRU replacement policy
ITLB has LRU replacement policy
DTLB has LRU replacement policy
STLB has LRU replacement policy
L1I has LRU replacement policy
History Sets: 8
History Ways: 16
BERTI Size: 16
BERTI Stride Size: 8
L1D has LRU replacement policy
Initialize SRRIP state for L2C
Initialize DRRIP state for LLC
BTB has LRU replacement policy
ITLB has LRU replacement policy
DTLB has LRU replacement policy
STLB has LRU replacement policy
L1I has LRU replacement policy
History Sets: 8
History Ways: 16
BERTI Size: 16
BERTI Stride Size: 8
L1D has LRU replacement policy
Initialize SRRIP state for L2C
Initialize DRRIP state for LLC
BTB has LRU replacement policy
ITLB has LRU replacement policy
DTLB has LRU replacement policy
STLB has LRU replacement policy
L1I has LRU replacement policy
History Sets: 8
History Ways: 16
BERTI Size: 16
BERTI Stride Size: 8
L1D has LRU replacement policy
Initialize SRRIP state for L2C
Initialize DRRIP state for LLC
Heartbeat CPU 0 instructions: 10000002 cycles: 2593179 heartbeat IPC: 3.85627 cumulative IPC: 3.85627 (Simulation time: 0 hr 6 min 11 sec) 
Heartbeat CPU 3 instructions: 10000000 cycles: 2933474 heartbeat IPC: 3.40893 cumulative IPC: 3.40893 (Simulation time: 0 hr 6 min 51 sec) 
Heartbeat CPU 2 instructions: 10000000 cycles: 3333346 heartbeat IPC: 2.99999 cumulative IPC: 2.99999 (Simulation time: 0 hr 7 min 35 sec) 
Heartbeat CPU 1 instructions: 10000000 cycles: 3795344 heartbeat IPC: 2.63481 cumulative IPC: 2.63481 (Simulation time: 0 hr 8 min 33 sec) 
Heartbeat CPU 0 instructions: 20000002 cycles: 5185543 heartbeat IPC: 3.85748 cumulative IPC: 3.85688 (Simulation time: 0 hr 11 min 6 sec) 
Heartbeat CPU 3 instructions: 20000002 cycles: 5867407 heartbeat IPC: 3.40839 cumulative IPC: 3.40866 (Simulation time: 0 hr 12 min 15 sec) 
Heartbeat CPU 2 instructions: 20000002 cycles: 6666680 heartbeat IPC: 3 cumulative IPC: 2.99999 (Simulation time: 0 hr 13 min 34 sec) 
Heartbeat CPU 1 instructions: 20000002 cycles: 7591686 heartbeat IPC: 2.63412 cumulative IPC: 2.63446 (Simulation time: 0 hr 14 min 55 sec) 
Heartbeat CPU 0 instructions: 30000001 cycles: 7777735 heartbeat IPC: 3.85774 cumulative IPC: 3.85716 (Simulation time: 0 hr 15 min 10 sec) 
Heartbeat CPU 3 instructions: 30000002 cycles: 8803306 heartbeat IPC: 3.40611 cumulative IPC: 3.40781 (Simulation time: 0 hr 16 min 28 sec) 
Heartbeat CPU 2 instructions: 30000003 cycles: 10000014 heartbeat IPC: 3 cumulative IPC: 3 (Simulation time: 0 hr 17 min 51 sec) 
Heartbeat CPU 0 instructions: 40000002 cycles: 10370425 heartbeat IPC: 3.857 cumulative IPC: 3.85712 (Simulation time: 0 hr 18 min 17 sec) 
Heartbeat CPU 1 instructions: 30000001 cycles: 11387948 heartbeat IPC: 2.63417 cumulative IPC: 2.63436 (Simulation time: 0 hr 19 min 27 sec) 
Heartbeat CPU 3 instructions: 40000000 cycles: 11738065 heartbeat IPC: 3.40743 cumulative IPC: 3.40772 (Simulation time: 0 hr 19 min 50 sec) 
Heartbeat CPU 0 instructions: 50000002 cycles: 12962548 heartbeat IPC: 3.85784 cumulative IPC: 3.85727 (Simulation time: 0 hr 21 min 14 sec) 
Heartbeat CPU 2 instructions: 40000002 cycles: 13333347 heartbeat IPC: 3 cumulative IPC: 3 (Simulation time: 0 hr 21 min 39 sec) 
Heartbeat CPU 3 instructions: 50000000 cycles: 14673917 heartbeat IPC: 3.40617 cumulative IPC: 3.40741 (Simulation time: 0 hr 23 min 12 sec) 
Heartbeat CPU 1 instructions: 40000001 cycles: 15185968 heartbeat IPC: 2.63295 cumulative IPC: 2.63401 (Simulation time: 0 hr 23 min 42 sec) 
Heartbeat CPU 0 instructions: 60000003 cycles: 15554857 heartbeat IPC: 3.85757 cumulative IPC: 0.642886 (Simulation time: 0 hr 24 min 4 sec) 
Heartbeat CPU 2 instructions: 50000000 cycles: 16666679 heartbeat IPC: 3 cumulative IPC: 3 (Simulation time: 0 hr 25 min 8 sec) 
Heartbeat CPU 3 instructions: 60000002 cycles: 18437706 heartbeat IPC: 2.6569 cumulative IPC: 0.542367 (Simulation time: 0 hr 26 min 44 sec) 
Heartbeat CPU 1 instructions: 50000000 cycles: 18986589 heartbeat IPC: 2.63115 cumulative IPC: 2.63344 (Simulation time: 0 hr 27 min 14 sec) 

Warmup complete CPU 0 instructions: 65015517 cycles: 18986590 (Simulation time: 0 hr 27 min 14 sec) 
Warmup complete CPU 1 instructions: 50000003 cycles: 18986590 (Simulation time: 0 hr 27 min 14 sec) 
Warmup complete CPU 2 instructions: 56824865 cycles: 18986589 (Simulation time: 0 hr 27 min 14 sec) 
Warmup complete CPU 3 instructions: 61445410 cycles: 18986589 (Simulation time: 0 hr 27 min 14 sec) 

Heartbeat CPU 2 instructions: 60000002 cycles: 21795713 heartbeat IPC: 1.94969 cumulative IPC: 1.13029 (Simulation time: 0 hr 28 min 20 sec) 
Heartbeat CPU 0 instructions: 70000001 cycles: 27297782 heartbeat IPC: 0.851576 cumulative IPC: 0.599732 (Simulation time: 0 hr 30 min 24 sec) 
Heartbeat CPU 1 instructions: 60000002 cycles: 27918992 heartbeat IPC: 1.11952 cumulative IPC: 1.11952 (Simulation time: 0 hr 30 min 39 sec) 
Heartbeat CPU 3 instructions: 70000003 cycles: 29148893 heartbeat IPC: 0.933603 cumulative IPC: 0.841797 (Simulation time: 0 hr 31 min 7 sec) 
Heartbeat CPU 2 instructions: 70000000 cycles: 30567005 heartbeat IPC: 1.14008 cumulative IPC: 1.13771 (Simulation time: 0 hr 31 min 40 sec) 
Heartbeat CPU 1 instructions: 70000000 cycles: 36815646 heartbeat IPC: 1.12402 cumulative IPC: 1.12176 (Simulation time: 0 hr 33 min 59 sec) 
Heartbeat CPU 2 instructions: 80000001 cycles: 39286714 heartbeat IPC: 1.14683 cumulative IPC: 1.14163 (Simulation time: 0 hr 34 min 51 sec) 
Heartbeat CPU 3 instructions: 80000003 cycles: 40974779 heartbeat IPC: 0.845603 cumulative IPC: 0.843844 (Simulation time: 0 hr 35 min 28 sec) 
Heartbeat CPU 0 instructions: 80000003 cycles: 42305183 heartbeat IPC: 0.666338 cumulative IPC: 0.642598 (Simulation time: 0 hr 35 min 58 sec) 
Heartbeat CPU 1 instructions: 80000001 cycles: 45698089 heartbeat IPC: 1.12582 cumulative IPC: 1.12311 (Simulation time: 0 hr 37 min 15 sec) 
Heartbeat CPU 2 instructions: 90000000 cycles: 48050009 heartbeat IPC: 1.14112 cumulative IPC: 1.14147 (Simulation time: 0 hr 38 min 7 sec) 
Heartbeat CPU 3 instructions: 90000001 cycles: 52706323 heartbeat IPC: 0.852403 cumulative IPC: 0.846821 (Simulation time: 0 hr 39 min 55 sec) 
Heartbeat CPU 0 instructions: 90000000 cycles: 53429681 heartbeat IPC: 0.898917 cumulative IPC: 0.725384 (Simulation time: 0 hr 40 min 13 sec) 
Heartbeat CPU 1 instructions: 90000002 cycles: 54694585 heartbeat IPC: 1.11154 cumulative IPC: 1.1202 (Simulation time: 0 hr 40 min 44 sec) 
Heartbeat CPU 2 instructions: 100000001 cycles: 56827133 heartbeat IPC: 1.13933 cumulative IPC: 1.14098 (Simulation time: 0 hr 41 min 36 sec) 
Heartbeat CPU 0 instructions: 100000000 cycles: 60774018 heartbeat IPC: 1.36159 cumulative IPC: 0.837201 (Simulation time: 0 hr 43 min 17 sec) 
Heartbeat CPU 1 instructions: 100000001 cycles: 63786778 heartbeat IPC: 1.09984 cumulative IPC: 1.11607 (Simulation time: 0 hr 44 min 32 sec) 
Heartbeat CPU 3 instructions: 100000000 cycles: 64456381 heartbeat IPC: 0.85106 cumulative IPC: 0.847917 (Simulation time: 0 hr 44 min 49 sec) 
Heartbeat CPU 2 instructions: 110000000 cycles: 65612414 heartbeat IPC: 1.13827 cumulative IPC: 1.14047 (Simulation time: 0 hr 45 min 18 sec) 
Heartbeat CPU 0 instructions: 110000000 cycles: 68035300 heartbeat IPC: 1.37717 cumulative IPC: 0.917139 (Simulation time: 0 hr 46 min 19 sec) 
Heartbeat CPU 1 instructions: 110000000 cycles: 72851444 heartbeat IPC: 1.10318 cumulative IPC: 1.1139 (Simulation time: 0 hr 48 min 16 sec) 
Heartbeat CPU 2 instructions: 120000003 cycles: 74420526 heartbeat IPC: 1.13532 cumulative IPC: 1.13965 (Simulation time: 0 hr 48 min 55 sec) 
Heartbeat CPU 0 instructions: 120000001 cycles: 75344034 heartbeat IPC: 1.36823 cumulative IPC: 0.975638 (Simulation time: 0 hr 49 min 18 sec) 
Heartbeat CPU 3 instructions: 110000000 cycles: 76221799 heartbeat IPC: 0.849949 cumulative IPC: 0.848334 (Simulation time: 0 hr 49 min 38 sec) 
Heartbeat CPU 1 instructions: 120000002 cycles: 82030922 heartbeat IPC: 1.08939 cumulative IPC: 1.11033 (Simulation time: 0 hr 51 min 58 sec) 
Heartbeat CPU 0 instructions: 130000000 cycles: 82697094 heartbeat IPC: 1.35998 cumulative IPC: 1.02 (Simulation time: 0 hr 52 min 14 sec) 
Heartbeat CPU 2 instructions: 130000001 cycles: 83260581 heartbeat IPC: 1.13121 cumulative IPC: 1.13849 (Simulation time: 0 hr 52 min 27 sec) 
Heartbeat CPU 3 instructions: 120000003 cycles: 88235833 heartbeat IPC: 0.83236 cumulative IPC: 0.845563 (Simulation time: 0 hr 54 min 24 sec) 
Heartbeat CPU 0 instructions: 140000000 cycles: 90098737 heartbeat IPC: 1.35105 cumulative IPC: 1.05445 (Simulation time: 0 hr 55 min 12 sec) 
Heartbeat CPU 1 instructions: 130000000 cycles: 91100079 heartbeat IPC: 1.10264 cumulative IPC: 1.10936 (Simulation time: 0 hr 55 min 37 sec) 
Heartbeat CPU 2 instructions: 140000002 cycles: 92099287 heartbeat IPC: 1.13139 cumulative IPC: 1.13763 (Simulation time: 0 hr 56 min 1 sec) 
Heartbeat CPU 0 instructions: 150000002 cycles: 97492201 heartbeat IPC: 1.35255 cumulative IPC: 1.08253 (Simulation time: 0 hr 58 min 13 sec) 
Heartbeat CPU 3 instructions: 130000000 cycles: 100079878 heartbeat IPC: 0.844306 cumulative IPC: 0.845379 (Simulation time: 0 hr 59 min 19 sec) 
Heartbeat CPU 1 instructions: 140000003 cycles: 100099492 heartbeat IPC: 1.11118 cumulative IPC: 1.10956 (Simulation time: 0 hr 59 min 19 sec) 
Heartbeat CPU 2 instructions: 150000003 cycles: 100913269 heartbeat IPC: 1.13456 cumulative IPC: 1.1373 (Simulation time: 0 hr 59 min 40 sec) 
Heartbeat CPU 0 instructions: 160000003 cycles: 104812920 heartbeat IPC: 1.36599 cumulative IPC: 1.10671 (Simulation time: 1 hr 1 min 19 sec) 
Heartbeat CPU 1 instructions: 150000001 cycles: 109064701 heartbeat IPC: 1.11542 cumulative IPC: 1.11015 (Simulation time: 1 hr 3 min 10 sec) 
Heartbeat CPU 2 instructions: 160000000 cycles: 109725717 heartbeat IPC: 1.13476 cumulative IPC: 1.13705 (Simulation time: 1 hr 3 min 26 sec) 
Heartbeat CPU 3 instructions: 140000003 cycles: 111669841 heartbeat IPC: 0.862816 cumulative IPC: 0.84756 (Simulation time: 1 hr 4 min 13 sec) 
Heartbeat CPU 0 instructions: 170000001 cycles: 112115115 heartbeat IPC: 1.36945 cumulative IPC: 1.12731 (Simulation time: 1 hr 4 min 25 sec) 
Heartbeat CPU 1 instructions: 160000001 cycles: 118206521 heartbeat IPC: 1.09387 cumulative IPC: 1.10865 (Simulation time: 1 hr 6 min 54 sec) 
Heartbeat CPU 2 instructions: 170000001 cycles: 118444549 heartbeat IPC: 1.14694 cumulative IPC: 1.13792 (Simulation time: 1 hr 6 min 59 sec) 
Heartbeat CPU 0 instructions: 180000001 cycles: 119428368 heartbeat IPC: 1.36738 cumulative IPC: 1.14479 (Simulation time: 1 hr 7 min 24 sec) 
Heartbeat CPU 3 instructions: 150000002 cycles: 123425858 heartbeat IPC: 0.850628 cumulative IPC: 0.847905 (Simulation time: 1 hr 8 min 58 sec) 
Heartbeat CPU 0 instructions: 190000000 cycles: 126734562 heartbeat IPC: 1.3687 cumulative IPC: 1.15997 (Simulation time: 1 hr 10 min 19 sec) 
Heartbeat CPU 2 instructions: 180000001 cycles: 127250997 heartbeat IPC: 1.13553 cumulative IPC: 1.13773 (Simulation time: 1 hr 10 min 32 sec) 
Heartbeat CPU 1 instructions: 170000000 cycles: 127420248 heartbeat IPC: 1.08534 cumulative IPC: 1.10667 (Simulation time: 1 hr 10 min 36 sec) 
Heartbeat CPU 0 instructions: 200000001 cycles: 134039809 heartbeat IPC: 1.36888 cumulative IPC: 1.17324 (Simulation time: 1 hr 13 min 15 sec) 
Heartbeat CPU 3 instructions: 160000000 cycles: 135162190 heartbeat IPC: 0.852055 cumulative IPC: 0.848324 (Simulation time: 1 hr 13 min 42 sec) 
Heartbeat CPU 2 instructions: 190000002 cycles: 136104887 heartbeat IPC: 1.12945 cumulative IPC: 1.1371 (Simulation time: 1 hr 14 min 6 sec) 
Heartbeat CPU 1 instructions: 180000000 cycles: 136777260 heartbeat IPC: 1.06872 cumulative IPC: 1.10365 (Simulation time: 1 hr 14 min 24 sec) 
Heartbeat CPU 2 instructions: 200000000 cycles: 145000747 heartbeat IPC: 1.12412 cumulative IPC: 1.13618 (Simulation time: 1 hr 17 min 25 sec) 
Heartbeat CPU 1 instructions: 190000000 cycles: 146160446 heartbeat IPC: 1.06574 cumulative IPC: 1.10086 (Simulation time: 1 hr 17 min 50 sec) 
Heartbeat CPU 3 instructions: 170000001 cycles: 146872293 heartbeat IPC: 0.853964 cumulative IPC: 0.848841 (Simulation time: 1 hr 18 min 5 sec) 
Heartbeat CPU 2 instructions: 210000000 cycles: 153872213 heartbeat IPC: 1.12721 cumulative IPC: 1.13559 (Simulation time: 1 hr 20 min 33 sec) 
Heartbeat CPU 1 instructions: 200000000 cycles: 155234588 heartbeat IPC: 1.10203 cumulative IPC: 1.10093 (Simulation time: 1 hr 21 min 3 sec) 
Heartbeat CPU 0 instructions: 210000000 cycles: 155438692 heartbeat IPC: 0.467314 cumulative IPC: 1.06253 (Simulation time: 1 hr 21 min 7 sec) 
Heartbeat CPU 3 instructions: 180000000 cycles: 158472896 heartbeat IPC: 0.862024 cumulative IPC: 0.849937 (Simulation time: 1 hr 22 min 11 sec) 
Heartbeat CPU 2 instructions: 220000000 cycles: 162829536 heartbeat IPC: 1.11641 cumulative IPC: 1.1344 (Simulation time: 1 hr 23 min 47 sec) 
Heartbeat CPU 1 instructions: 210000002 cycles: 164277136 heartbeat IPC: 1.10588 cumulative IPC: 1.10124 (Simulation time: 1 hr 24 min 18 sec) 
Heartbeat CPU 3 instructions: 190000003 cycles: 170161509 heartbeat IPC: 0.855534 cumulative IPC: 0.85037 (Simulation time: 1 hr 26 min 28 sec) 
Heartbeat CPU 2 instructions: 230000002 cycles: 171682073 heartbeat IPC: 1.12962 cumulative IPC: 1.13412 (Simulation time: 1 hr 27 min 3 sec) 
Heartbeat CPU 1 instructions: 220000000 cycles: 173238409 heartbeat IPC: 1.11591 cumulative IPC: 1.10209 (Simulation time: 1 hr 27 min 38 sec) 
Heartbeat CPU 0 instructions: 220000000 cycles: 180308249 heartbeat IPC: 0.402098 cumulative IPC: 0.960717 (Simulation time: 1 hr 30 min 13 sec) 
Heartbeat CPU 2 instructions: 240000000 cycles: 180525862 heartbeat IPC: 1.13074 cumulative IPC: 1.13394 (Simulation time: 1 hr 30 min 18 sec) 
Heartbeat CPU 3 instructions: 200000000 cycles: 181455148 heartbeat IPC: 0.885454 cumulative IPC: 0.852809 (Simulation time: 1 hr 30 min 37 sec) 
Heartbeat CPU 1 instructions: 230000000 cycles: 182384016 heartbeat IPC: 1.09342 cumulative IPC: 1.10161 (Simulation time: 1 hr 30 min 57 sec) 
*** Reached end of trace for Core: 2 Repeating trace: ./traces/ligra/ligra_PageRankDelta.com-lj.ungraph.gcc_6.3.0_O3.drop_3500M.length_250M.champsimtrace.xz
Heartbeat CPU 2 instructions: 250000002 cycles: 189343001 heartbeat IPC: 1.13415 cumulative IPC: 1.13395 (Simulation time: 1 hr 33 min 26 sec) 
Heartbeat CPU 1 instructions: 240000000 cycles: 191860401 heartbeat IPC: 1.05525 cumulative IPC: 1.09907 (Simulation time: 1 hr 34 min 18 sec) 
Heartbeat CPU 3 instructions: 210000001 cycles: 192876061 heartbeat IPC: 0.875587 cumulative IPC: 0.854305 (Simulation time: 1 hr 34 min 40 sec) 
Finished CPU 2 instructions: 200000000 cycles: 176258565 cumulative IPC: 1.1347 (Simulation time: 1 hr 35 min 34 sec) 
Heartbeat CPU 2 instructions: 260000001 cycles: 197997777 heartbeat IPC: 1.15543 cumulative IPC: 1.13499 (Simulation time: 1 hr 36 min 36 sec) 
*** Reached end of trace for Core: 1 Repeating trace: ./traces/ligra/ligra_BFSCC.com-lj.ungraph.gcc_6.3.0_O3.drop_5000M.length_250M.champsimtrace.xz
Heartbeat CPU 1 instructions: 250000000 cycles: 201099036 heartbeat IPC: 1.08241 cumulative IPC: 1.09822 (Simulation time: 1 hr 37 min 43 sec) 
Finished CPU 1 instructions: 200000000 cycles: 182113958 cumulative IPC: 1.09821 (Simulation time: 1 hr 37 min 43 sec) 
Heartbeat CPU 3 instructions: 220000000 cycles: 204471480 heartbeat IPC: 0.862409 cumulative IPC: 0.854811 (Simulation time: 1 hr 38 min 58 sec) 
Heartbeat CPU 0 instructions: 230000000 cycles: 206633799 heartbeat IPC: 0.379859 cumulative IPC: 0.879227 (Simulation time: 1 hr 39 min 49 sec) 
Heartbeat CPU 2 instructions: 270000002 cycles: 206679086 heartbeat IPC: 1.1519 cumulative IPC: 1.13577 (Simulation time: 1 hr 39 min 51 sec) 
Heartbeat CPU 1 instructions: 260000001 cycles: 209697293 heartbeat IPC: 1.16303 cumulative IPC: 1.10114 (Simulation time: 1 hr 41 min 15 sec) 
Heartbeat CPU 2 instructions: 280000001 cycles: 215337280 heartbeat IPC: 1.15498 cumulative IPC: 1.13661 (Simulation time: 1 hr 43 min 48 sec) 
Heartbeat CPU 3 instructions: 230000000 cycles: 215855345 heartbeat IPC: 0.878436 cumulative IPC: 0.856177 (Simulation time: 1 hr 44 min 3 sec) 
Heartbeat CPU 0 instructions: 240000000 cycles: 216973626 heartbeat IPC: 0.967134 cumulative IPC: 0.883818 (Simulation time: 1 hr 44 min 32 sec) 
Heartbeat CPU 1 instructions: 270000000 cycles: 218803585 heartbeat IPC: 1.09814 cumulative IPC: 1.10101 (Simulation time: 1 hr 45 min 20 sec) 
Heartbeat CPU 2 instructions: 290000000 cycles: 224016419 heartbeat IPC: 1.15219 cumulative IPC: 1.13727 (Simulation time: 1 hr 47 min 36 sec) 
Heartbeat CPU 0 instructions: 250000000 cycles: 225584013 heartbeat IPC: 1.16139 cumulative IPC: 0.895386 (Simulation time: 1 hr 48 min 15 sec) 
Heartbeat CPU 3 instructions: 240000003 cycles: 227441175 heartbeat IPC: 0.863124 cumulative IPC: 0.856564 (Simulation time: 1 hr 49 min 2 sec) 
Heartbeat CPU 1 instructions: 280000000 cycles: 227692207 heartbeat IPC: 1.12503 cumulative IPC: 1.10203 (Simulation time: 1 hr 49 min 8 sec) 
Heartbeat CPU 2 instructions: 300000003 cycles: 232681729 heartbeat IPC: 1.15403 cumulative IPC: 1.13795 (Simulation time: 1 hr 51 min 15 sec) 
Heartbeat CPU 0 instructions: 260000003 cycles: 234204886 heartbeat IPC: 1.15998 cumulative IPC: 0.905985 (Simulation time: 1 hr 51 min 52 sec) 
Heartbeat CPU 1 instructions: 290000002 cycles: 236716715 heartbeat IPC: 1.10809 cumulative IPC: 1.10228 (Simulation time: 1 hr 52 min 54 sec) 
Finished CPU 0 instructions: 200000003 cycles: 219592823 cumulative IPC: 0.910777 (Simulation time: 1 hr 53 min 38 sec) 
*** Reached end of trace for Core: 3 Repeating trace: ./traces/ligra/ligra_Components.com-lj.ungraph.gcc_6.3.0_O3.drop_12500M.length_250M.champsimtrace.xz
Heartbeat CPU 3 instructions: 250000002 cycles: 239096895 heartbeat IPC: 0.857948 cumulative IPC: 0.856637 (Simulation time: 1 hr 53 min 51 sec) 
Heartbeat CPU 2 instructions: 310000002 cycles: 241342846 heartbeat IPC: 1.15459 cumulative IPC: 1.1386 (Simulation time: 1 hr 54 min 48 sec) 
Heartbeat CPU 0 instructions: 270000000 cycles: 242889437 heartbeat IPC: 1.15147 cumulative IPC: 0.915506 (Simulation time: 1 hr 55 min 26 sec) 
Heartbeat CPU 1 instructions: 300000001 cycles: 245662798 heartbeat IPC: 1.11781 cumulative IPC: 1.10289 (Simulation time: 1 hr 56 min 35 sec) 
Heartbeat CPU 2 instructions: 320000000 cycles: 250027067 heartbeat IPC: 1.15151 cumulative IPC: 1.13909 (Simulation time: 1 hr 58 min 21 sec) 
Heartbeat CPU 3 instructions: 260000000 cycles: 250687304 heartbeat IPC: 0.862782 cumulative IPC: 0.856944 (Simulation time: 1 hr 58 min 36 sec) 
Heartbeat CPU 0 instructions: 280000001 cycles: 251498012 heartbeat IPC: 1.16163 cumulative IPC: 0.924619 (Simulation time: 1 hr 58 min 55 sec) 
Finished CPU 3 instructions: 200000001 cycles: 233373722 cumulative IPC: 0.856995 (Simulation time: 1 hr 59 min 16 sec) 

ChampSim completed all CPUs

Total Simulation Statistics (not including warmup)

CPU 0 cumulative IPC: 0.925477 instructions: 215981967 cycles: 233373721
ITLB TOTAL     ACCESS:   33853922  HIT:   33853920  MISS:          2  HIT %:        100  MISS %: 5.90774e-06   MPKI: 9.26003e-06
ITLB LOAD      ACCESS:          0  HIT:          0  MISS:          0  HIT %:       -nan  MISS %:       -nan   MPKI: 0
ITLB RFO       ACCESS:          0  HIT:          0  MISS:          0  HIT %:       -nan  MISS %:       -nan   MPKI: 0
ITLB PREFETCH  ACCESS:          0  HIT:          0  MISS:          0  HIT %:       -nan  MISS %:       -nan   MPKI: 0
ITLB WRITEBACK ACCESS:          0  HIT:          0  MISS:          0  HIT %:       -nan  MISS %:       -nan   MPKI: 0
DTLB TOTAL     ACCESS:   29325395  HIT:   29047751  MISS:     277644  HIT %:    99.0532  MISS %:    0.94677   MPKI: 1.2855
DTLB LOAD      ACCESS:          0  HIT:          0  MISS:          0  HIT %:       -nan  MISS %:       -nan   MPKI: 0
DTLB RFO       ACCESS:          0  HIT:          0  MISS:          0  HIT %:       -nan  MISS %:       -nan   MPKI: 0
DTLB PREFETCH  ACCESS:          0  HIT:          0  MISS:          0  HIT %:       -nan  MISS %:       -nan   MPKI: 0
DTLB WRITEBACK ACCESS:          0  HIT:          0  MISS:          0  HIT %:       -nan  MISS %:       -nan   MPKI: 0
STLB TOTAL     ACCESS:   14607326  HIT:   14355340  MISS:     251986  HIT %:    98.2749  MISS %:    1.72507   MPKI: 1.1667
STLB LOAD      ACCESS:          0  HIT:          0  MISS:          0  HIT %:       -nan  MISS %:       -nan   MPKI: 0
STLB RFO       ACCESS:          0  HIT:          0  MISS:          0  HIT %:       -nan  MISS %:       -nan   MPKI: 0
STLB PREFETCH  ACCESS:          0  HIT:          0  MISS:          0  HIT %:       -nan  MISS %:       -nan   MPKI: 0
STLB WRITEBACK ACCESS:          0  HIT:          0  MISS:          0  HIT %:       -nan  MISS %:       -nan   MPKI: 0
L1D TOTAL     ACCESS:   59553808  HIT:   56069295  MISS:    3484513  HIT %:     94.149  MISS %:    5.85103   MPKI: 16.1334
L1D LOAD      ACCESS:   26218182  HIT:   25475854  MISS:     742328  HIT %:    97.1687  MISS %:    2.83135   MPKI: 3.43699
L1D RFO       ACCESS:    8197028  HIT:    7606194  MISS:     590834  HIT %:    92.7921  MISS %:    7.20791   MPKI: 2.73557
L1D PREFETCH  ACCESS:   25138598  HIT:   22987247  MISS:    2151351  HIT %:     91.442  MISS %:    8.55796   MPKI: 9.96079
L1D WRITEBACK ACCESS:          0  HIT:          0  MISS:          0  HIT %:       -nan  MISS %:       -nan   MPKI: 0
L1I TOTAL     ACCESS:   47102151  HIT:   47102109  MISS:         42  HIT %:    99.9999  MISS %: 8.91679e-05   MPKI: 0.000194461
L1I LOAD      ACCESS:   47102151  HIT:   47102109  MISS:         42  HIT %:    99.9999  MISS %: 8.91679e-05   MPKI: 0.000194461
L1I RFO       ACCESS:          0  HIT:          0  MISS:          0  HIT %:       -nan  MISS %:       -nan   MPKI: 0
L1I PREFETCH  ACCESS:          0  HIT:          0  MISS:          0  HIT %:       -nan  MISS %:       -nan   MPKI: 0
L1I WRITEBACK ACCESS:          0  HIT:          0  MISS:          0  HIT %:       -nan  MISS %:       -nan   MPKI: 0
L2C TOTAL     ACCESS:    9762677  HIT:    5654260  MISS:    4108417  HIT %:    57.9171  MISS %:    42.0829   MPKI: 19.022
L2C LOAD      ACCESS:     681928  HIT:     321684  MISS:     360244  HIT %:    47.1727  MISS %:    52.8273   MPKI: 1.66794
L2C RFO       ACCESS:     590834  HIT:          2  MISS:     590832  HIT %: 0.000338505  MISS %:    99.9997   MPKI: 2.73556
L2C PREFETCH  ACCESS:    6828845  HIT:    3759925  MISS:    3068920  HIT %:    55.0595  MISS %:    44.9405   MPKI: 14.2091
L2C WRITEBACK ACCESS:    1071279  HIT:    1014821  MISS:      56458  HIT %:    94.7299  MISS %:    5.27015   MPKI: 0.261401
PSCL5 TOTAL     ACCESS:     589286  HIT:     589286  MISS:          0  HIT %:        100  MISS %:          0   MPKI: 0
PSCL5 LOAD      ACCESS:          0  HIT:          0  MISS:          0  HIT %:       -nan  MISS %:       -nan   MPKI: 0
PSCL5 RFO       ACCESS:          0  HIT:          0  MISS:          0  HIT %:       -nan  MISS %:       -nan   MPKI: 0
PSCL5 PREFETCH  ACCESS:          0  HIT:          0  MISS:          0  HIT %:       -nan  MISS %:       -nan   MPKI: 0
PSCL5 WRITEBACK ACCESS:          0  HIT:          0  MISS:          0  HIT %:       -nan  MISS %:       -nan   MPKI: 0
PSCL4 TOTAL     ACCESS:     589286  HIT:     589286  MISS:          0  HIT %:        100  MISS %:          0   MPKI: 0
PSCL4 LOAD      ACCESS:          0  HIT:          0  MISS:          0  HIT %:       -nan  MISS %:       -nan   MPKI: 0
PSCL4 RFO       ACCESS:          0  HIT:          0  MISS:          0  HIT %:       -nan  MISS %:       -nan   MPKI: 0
PSCL4 PREFETCH  ACCESS:          0  HIT:          0  MISS:          0  HIT %:       -nan  MISS %:       -nan   MPKI: 0
PSCL4 WRITEBACK ACCESS:          0  HIT:          0  MISS:          0  HIT %:       -nan  MISS %:       -nan   MPKI: 0
PSCL3 TOTAL     ACCESS:     589286  HIT:     589286  MISS:          0  HIT %:        100  MISS %:          0   MPKI: 0
PSCL3 LOAD      ACCESS:          0  HIT:          0  MISS:          0  HIT %:       -nan  MISS %:       -nan   MPKI: 0
PSCL3 RFO       ACCESS:          0  HIT:          0  MISS:          0  HIT %:       -nan  MISS %:       -nan   MPKI: 0
PSCL3 PREFETCH  ACCESS:          0  HIT:          0  MISS:          0  HIT %:       -nan  MISS %:       -nan   MPKI: 0
PSCL3 WRITEBACK ACCESS:          0  HIT:          0  MISS:          0  HIT %:       -nan  MISS %:       -nan   MPKI: 0
PSCL2 TOTAL     ACCESS:     588491  HIT:     587967  MISS:        524  HIT %:     99.911  MISS %:  0.0890413   MPKI: 0.00242613
PSCL2 LOAD      ACCESS:          0  HIT:          0  MISS:          0  HIT %:       -nan  MISS %:       -nan   MPKI: 0
PSCL2 RFO       ACCESS:          0  HIT:          0  MISS:          0  HIT %:       -nan  MISS %:       -nan   MPKI: 0
PSCL2 PREFETCH  ACCESS:          0  HIT:          0  MISS:          0  HIT %:       -nan  MISS %:       -nan   MPKI: 0
PSCL2 WRITEBACK ACCESS:          0  HIT:          0  MISS:          0  HIT %:       -nan  MISS %:       -nan   MPKI: 0
LLC TOTAL     ACCESS:    5127965  HIT:     225531  MISS:    4902434  HIT %:    4.39806  MISS %:    95.6019   MPKI: 22.6983
LLC LOAD      ACCESS:     241531  HIT:       1571  MISS:     239960  HIT %:   0.650434  MISS %:    99.3496   MPKI: 1.11102
LLC RFO       ACCESS:     590832  HIT:         59  MISS:     590773  HIT %: 0.00998592  MISS %:      99.99   MPKI: 2.73529
LLC PREFETCH  ACCESS:    3187633  HIT:       4833  MISS:    3182800  HIT %:   0.151617  MISS %:    99.8484   MPKI: 14.7364
LLC WRITEBACK ACCESS:    1076006  HIT:     218876  MISS:     857130  HIT %:    20.3415  MISS %:    79.6585   MPKI: 3.96853

RAW hits: 5
Loads Generated: 56866600
Loads sent to L1D: 56866595
Stores Generated: 11721487
Stores sent to L1D: 11721486

CPU 1 cumulative IPC: 1.10336 instructions: 257495587 cycles: 233373721
ITLB TOTAL     ACCESS:   42732321  HIT:   42732321  MISS:          0  HIT %:        100  MISS %:          0   MPKI: 0
ITLB LOAD      ACCESS:          0  HIT:          0  MISS:          0  HIT %:       -nan  MISS %:       -nan   MPKI: 0
ITLB RFO       ACCESS:          0  HIT:          0  MISS:          0  HIT %:       -nan  MISS %:       -nan   MPKI: 0
ITLB PREFETCH  ACCESS:          0  HIT:          0  MISS:          0  HIT %:       -nan  MISS %:       -nan   MPKI: 0
ITLB WRITEBACK ACCESS:          0  HIT:          0  MISS:          0  HIT %:       -nan  MISS %:       -nan   MPKI: 0
DTLB TOTAL     ACCESS:   26709335  HIT:   26683753  MISS:      25582  HIT %:    99.9042  MISS %:  0.0957792   MPKI: 0.0993493
DTLB LOAD      ACCESS:          0  HIT:          0  MISS:          0  HIT %:       -nan  MISS %:       -nan   MPKI: 0
DTLB RFO       ACCESS:          0  HIT:          0  MISS:          0  HIT %:       -nan  MISS %:       -nan   MPKI: 0
DTLB PREFETCH  ACCESS:          0  HIT:          0  MISS:          0  HIT %:       -nan  MISS %:       -nan   MPKI: 0
DTLB WRITEBACK ACCESS:          0  HIT:          0  MISS:          0  HIT %:       -nan  MISS %:       -nan   MPKI: 0
STLB TOTAL     ACCESS:   13509102  HIT:   13483520  MISS:      25582  HIT %:    99.8106  MISS %:   0.189369   MPKI: 0.0993493
STLB LOAD      ACCESS:          0  HIT:          0  MISS:          0  HIT %:       -nan  MISS %:       -nan   MPKI: 0
STLB RFO       ACCESS:          0  HIT:          0  MISS:          0  HIT %:       -nan  MISS %:       -nan   MPKI: 0
STLB PREFETCH  ACCESS:          0  HIT:          0  MISS:          0  HIT %:       -nan  MISS %:       -nan   MPKI: 0
STLB WRITEBACK ACCESS:          0  HIT:          0  MISS:          0  HIT %:       -nan  MISS %:       -nan   MPKI: 0
L1D TOTAL     ACCESS:   91935101  HIT:   90297916  MISS:    1637185  HIT %:    98.2192  MISS %:    1.78081   MPKI: 6.35811
L1D LOAD      ACCESS:   19761145  HIT:   19743849  MISS:      17296  HIT %:    99.9125  MISS %:  0.0875253   MPKI: 0.0671701
L1D RFO       ACCESS:    1328908  HIT:     454301  MISS:     874607  HIT %:     34.186  MISS %:     65.814   MPKI: 3.39659
L1D PREFETCH  ACCESS:   70845048  HIT:   70099766  MISS:     745282  HIT %:     98.948  MISS %:    1.05199   MPKI: 2.89435
L1D WRITEBACK ACCESS:          0  HIT:          0  MISS:          0  HIT %:       -nan  MISS %:       -nan   MPKI: 0
L1I TOTAL     ACCESS:   42756057  HIT:   42756057  MISS:          0  HIT %:        100  MISS %:          0   MPKI: 0
L1I LOAD      ACCESS:   42756057  HIT:   42756057  MISS:          0  HIT %:        100  MISS %:          0   MPKI: 0
L1I RFO       ACCESS:          0  HIT:          0  MISS:          0  HIT %:       -nan  MISS %:       -nan   MPKI: 0
L1I PREFETCH  ACCESS:          0  HIT:          0  MISS:          0  HIT %:       -nan  MISS %:       -nan   MPKI: 0
L1I WRITEBACK ACCESS:          0  HIT:          0  MISS:          0  HIT %:       -nan  MISS %:       -nan   MPKI: 0
L2C TOTAL     ACCESS:    4469727  HIT:    2764341  MISS:    1705386  HIT %:    61.8459  MISS %:    38.1541   MPKI: 6.62297
L2C LOAD      ACCESS:       6678  HIT:         76  MISS:       6602  HIT %:    1.13807  MISS %:    98.8619   MPKI: 0.0256393
L2C RFO       ACCESS:     874607  HIT:          0  MISS:     874607  HIT %:          0  MISS %:        100   MPKI: 3.39659
L2C PREFETCH  ACCESS:    1688169  HIT:     932184  MISS:     755985  HIT %:    55.2186  MISS %:    44.7814   MPKI: 2.93591
L2C WRITEBACK ACCESS:     874571  HIT:     809678  MISS:      64893  HIT %:      92.58  MISS %:    7.41998   MPKI: 0.252016
PSCL5 TOTAL     ACCESS:    1025687  HIT:    1025687  MISS:          0  HIT %:        100  MISS %:          0   MPKI: 0
PSCL5 LOAD      ACCESS:          0  HIT:          0  MISS:          0  HIT %:       -nan  MISS %:       -nan   MPKI: 0
PSCL5 RFO       ACCESS:          0  HIT:          0  MISS:          0  HIT %:       -nan  MISS %:       -nan   MPKI: 0
PSCL5 PREFETCH  ACCESS:          0  HIT:          0  MISS:          0  HIT %:       -nan  MISS %:       -nan   MPKI: 0
PSCL5 WRITEBACK ACCESS:          0  HIT:          0  MISS:          0  HIT %:       -nan  MISS %:       -nan   MPKI: 0
PSCL4 TOTAL     ACCESS:    1025687  HIT:    1025687  MISS:          0  HIT %:        100  MISS %:          0   MPKI: 0
PSCL4 LOAD      ACCESS:          0  HIT:          0  MISS:          0  HIT %:       -nan  MISS %:       -nan   MPKI: 0
PSCL4 RFO       ACCESS:          0  HIT:          0  MISS:          0  HIT %:       -nan  MISS %:       -nan   MPKI: 0
PSCL4 PREFETCH  ACCESS:          0  HIT:          0  MISS:          0  HIT %:       -nan  MISS %:       -nan   MPKI: 0
PSCL4 WRITEBACK ACCESS:          0  HIT:          0  MISS:          0  HIT %:       -nan  MISS %:       -nan   MPKI: 0
PSCL3 TOTAL     ACCESS:    1025687  HIT:    1025687  MISS:          0  HIT %:        100  MISS %:          0   MPKI: 0
PSCL3 LOAD      ACCESS:          0  HIT:          0  MISS:          0  HIT %:       -nan  MISS %:       -nan   MPKI: 0
PSCL3 RFO       ACCESS:          0  HIT:          0  MISS:          0  HIT %:       -nan  MISS %:       -nan   MPKI: 0
PSCL3 PREFETCH  ACCESS:          0  HIT:          0  MISS:          0  HIT %:       -nan  MISS %:       -nan   MPKI: 0
PSCL3 WRITEBACK ACCESS:          0  HIT:          0  MISS:          0  HIT %:       -nan  MISS %:       -nan   MPKI: 0
PSCL2 TOTAL     ACCESS:    1023996  HIT:    1023943  MISS:         53  HIT %:    99.9948  MISS %:  0.0051758   MPKI: 0.000205829
PSCL2 LOAD      ACCESS:          0  HIT:          0  MISS:          0  HIT %:       -nan  MISS %:       -nan   MPKI: 0
PSCL2 RFO       ACCESS:          0  HIT:          0  MISS:          0  HIT %:       -nan  MISS %:       -nan   MPKI: 0
PSCL2 PREFETCH  ACCESS:          0  HIT:          0  MISS:          0  HIT %:       -nan  MISS %:       -nan   MPKI: 0
PSCL2 WRITEBACK ACCESS:          0  HIT:          0  MISS:          0  HIT %:       -nan  MISS %:       -nan   MPKI: 0
LLC TOTAL     ACCESS:    2514872  HIT:     859304  MISS:    1655568  HIT %:    34.1689  MISS %:    65.8311   MPKI: 6.4295
LLC LOAD      ACCESS:       6596  HIT:          0  MISS:       6596  HIT %:          0  MISS %:        100   MPKI: 0.025616
LLC RFO       ACCESS:     874607  HIT:          0  MISS:     874607  HIT %:          0  MISS %:        100   MPKI: 3.39659
LLC PREFETCH  ACCESS:     755991  HIT:          0  MISS:     755991  HIT %:          0  MISS %:        100   MPKI: 2.93594
LLC WRITEBACK ACCESS:     874379  HIT:     859250  MISS:      15129  HIT %:    98.2697  MISS %:    1.73026   MPKI: 0.0587544

RAW hits: 0
Loads Generated: 48686108
Loads sent to L1D: 48686107
Stores Generated: 6996872
Stores sent to L1D: 6996874

CPU 2 cumulative IPC: 1.13949 instructions: 265927076 cycles: 233373722
ITLB TOTAL     ACCESS:   44123629  HIT:   44123629  MISS:          0  HIT %:        100  MISS %:          0   MPKI: 0
ITLB LOAD      ACCESS:          0  HIT:          0  MISS:          0  HIT %:       -nan  MISS %:       -nan   MPKI: 0
ITLB RFO       ACCESS:          0  HIT:          0  MISS:          0  HIT %:       -nan  MISS %:       -nan   MPKI: 0
ITLB PREFETCH  ACCESS:          0  HIT:          0  MISS:          0  HIT %:       -nan  MISS %:       -nan   MPKI: 0
ITLB WRITEBACK ACCESS:          0  HIT:          0  MISS:          0  HIT %:       -nan  MISS %:       -nan   MPKI: 0
DTLB TOTAL     ACCESS:   44984328  HIT:   44969464  MISS:      14864  HIT %:     99.967  MISS %:  0.0330426   MPKI: 0.055895
DTLB LOAD      ACCESS:          0  HIT:          0  MISS:          0  HIT %:       -nan  MISS %:       -nan   MPKI: 0
DTLB RFO       ACCESS:          0  HIT:          0  MISS:          0  HIT %:       -nan  MISS %:       -nan   MPKI: 0
DTLB PREFETCH  ACCESS:          0  HIT:          0  MISS:          0  HIT %:       -nan  MISS %:       -nan   MPKI: 0
DTLB WRITEBACK ACCESS:          0  HIT:          0  MISS:          0  HIT %:       -nan  MISS %:       -nan   MPKI: 0
STLB TOTAL     ACCESS:   14913362  HIT:   14898487  MISS:      14875  HIT %:    99.9003  MISS %:  0.0997428   MPKI: 0.0559364
STLB LOAD      ACCESS:          0  HIT:          0  MISS:          0  HIT %:       -nan  MISS %:       -nan   MPKI: 0
STLB RFO       ACCESS:          0  HIT:          0  MISS:          0  HIT %:       -nan  MISS %:       -nan   MPKI: 0
STLB PREFETCH  ACCESS:          0  HIT:          0  MISS:          0  HIT %:       -nan  MISS %:       -nan   MPKI: 0
STLB WRITEBACK ACCESS:          0  HIT:          0  MISS:          0  HIT %:       -nan  MISS %:       -nan   MPKI: 0
L1D TOTAL     ACCESS:   95038083  HIT:   94086879  MISS:     951204  HIT %:    98.9991  MISS %:    1.00087   MPKI: 3.57694
L1D LOAD      ACCESS:   16587998  HIT:   16581987  MISS:       6011  HIT %:    99.9638  MISS %:   0.036237   MPKI: 0.0226039
L1D RFO       ACCESS:    7906572  HIT:    7430974  MISS:     475598  HIT %:    93.9848  MISS %:    6.01522   MPKI: 1.78845
L1D PREFETCH  ACCESS:   70543513  HIT:   70073918  MISS:     469595  HIT %:    99.3343  MISS %:   0.665681   MPKI: 1.76588
L1D WRITEBACK ACCESS:          0  HIT:          0  MISS:          0  HIT %:       -nan  MISS %:       -nan   MPKI: 0
L1I TOTAL     ACCESS:   44123628  HIT:   44123628  MISS:          0  HIT %:        100  MISS %:          0   MPKI: 0
L1I LOAD      ACCESS:   44123628  HIT:   44123628  MISS:          0  HIT %:        100  MISS %:          0   MPKI: 0
L1I RFO       ACCESS:          0  HIT:          0  MISS:          0  HIT %:       -nan  MISS %:       -nan   MPKI: 0
L1I PREFETCH  ACCESS:          0  HIT:          0  MISS:          0  HIT %:       -nan  MISS %:       -nan   MPKI: 0
L1I WRITEBACK ACCESS:          0  HIT:          0  MISS:          0  HIT %:       -nan  MISS %:       -nan   MPKI: 0
L2C TOTAL     ACCESS:    3872333  HIT:    2838577  MISS:    1033756  HIT %:    73.3041  MISS %:    26.6959   MPKI: 3.88737
L2C LOAD      ACCESS:       2670  HIT:          0  MISS:       2670  HIT %:          0  MISS %:        100   MPKI: 0.0100403
L2C RFO       ACCESS:     475598  HIT:          0  MISS:     475598  HIT %:          0  MISS %:        100   MPKI: 1.78845
L2C PREFETCH  ACCESS:    1556568  HIT:    1062084  MISS:     494484  HIT %:    68.2324  MISS %:    31.7676   MPKI: 1.85947
L2C WRITEBACK ACCESS:     475598  HIT:     416481  MISS:      59117  HIT %:      87.57  MISS %:      12.43   MPKI: 0.222305
PSCL5 TOTAL     ACCESS:    1361899  HIT:    1361899  MISS:          0  HIT %:        100  MISS %:          0   MPKI: 0
PSCL5 LOAD      ACCESS:          0  HIT:          0  MISS:          0  HIT %:       -nan  MISS %:       -nan   MPKI: 0
PSCL5 RFO       ACCESS:          0  HIT:          0  MISS:          0  HIT %:       -nan  MISS %:       -nan   MPKI: 0
PSCL5 PREFETCH  ACCESS:          0  HIT:          0  MISS:          0  HIT %:       -nan  MISS %:       -nan   MPKI: 0
PSCL5 WRITEBACK ACCESS:          0  HIT:          0  MISS:          0  HIT %:       -nan  MISS %:       -nan   MPKI: 0
PSCL4 TOTAL     ACCESS:    1361899  HIT:    1361899  MISS:          0  HIT %:        100  MISS %:          0   MPKI: 0
PSCL4 LOAD      ACCESS:          0  HIT:          0  MISS:          0  HIT %:       -nan  MISS %:       -nan   MPKI: 0
PSCL4 RFO       ACCESS:          0  HIT:          0  MISS:          0  HIT %:       -nan  MISS %:       -nan   MPKI: 0
PSCL4 PREFETCH  ACCESS:          0  HIT:          0  MISS:          0  HIT %:       -nan  MISS %:       -nan   MPKI: 0
PSCL4 WRITEBACK ACCESS:          0  HIT:          0  MISS:          0  HIT %:       -nan  MISS %:       -nan   MPKI: 0
PSCL3 TOTAL     ACCESS:    1361899  HIT:    1361899  MISS:          0  HIT %:        100  MISS %:          0   MPKI: 0
PSCL3 LOAD      ACCESS:          0  HIT:          0  MISS:          0  HIT %:       -nan  MISS %:       -nan   MPKI: 0
PSCL3 RFO       ACCESS:          0  HIT:          0  MISS:          0  HIT %:       -nan  MISS %:       -nan   MPKI: 0
PSCL3 PREFETCH  ACCESS:          0  HIT:          0  MISS:          0  HIT %:       -nan  MISS %:       -nan   MPKI: 0
PSCL3 WRITEBACK ACCESS:          0  HIT:          0  MISS:          0  HIT %:       -nan  MISS %:       -nan   MPKI: 0
PSCL2 TOTAL     ACCESS:    1351650  HIT:    1351629  MISS:         21  HIT %:    99.9984  MISS %: 0.00155366   MPKI: 7.8969e-05
PSCL2 LOAD      ACCESS:          0  HIT:          0  MISS:          0  HIT %:       -nan  MISS %:       -nan   MPKI: 0
PSCL2 RFO       ACCESS:          0  HIT:          0  MISS:          0  HIT %:       -nan  MISS %:       -nan   MPKI: 0
PSCL2 PREFETCH  ACCESS:          0  HIT:          0  MISS:          0  HIT %:       -nan  MISS %:       -nan   MPKI: 0
PSCL2 WRITEBACK ACCESS:          0  HIT:          0  MISS:          0  HIT %:       -nan  MISS %:       -nan   MPKI: 0
LLC TOTAL     ACCESS:    1450495  HIT:     469414  MISS:     981081  HIT %:    32.3623  MISS %:    67.6377   MPKI: 3.68929
LLC LOAD      ACCESS:       2670  HIT:          0  MISS:       2670  HIT %:          0  MISS %:        100   MPKI: 0.0100403
LLC RFO       ACCESS:     475598  HIT:          0  MISS:     475598  HIT %:          0  MISS %:        100   MPKI: 1.78845
LLC PREFETCH  ACCESS:     494484  HIT:      20944  MISS:     473540  HIT %:    4.23553  MISS %:    95.7645   MPKI: 1.78071
LLC WRITEBACK ACCESS:     475856  HIT:     448463  MISS:      27393  HIT %:    94.2434  MISS %:    5.75657   MPKI: 0.103009

RAW hits: 0
Loads Generated: 56867555
Loads sent to L1D: 56867555
Stores Generated: 30438394
Stores sent to L1D: 30438394

CPU 3 cumulative IPC: 0.856995 instructions: 200000001 cycles: 233373722
ITLB TOTAL     ACCESS:   36774512  HIT:   36774512  MISS:          0  HIT %:        100  MISS %:          0   MPKI: 0
ITLB LOAD      ACCESS:          0  HIT:          0  MISS:          0  HIT %:       -nan  MISS %:       -nan   MPKI: 0
ITLB RFO       ACCESS:          0  HIT:          0  MISS:          0  HIT %:       -nan  MISS %:       -nan   MPKI: 0
ITLB PREFETCH  ACCESS:          0  HIT:          0  MISS:          0  HIT %:       -nan  MISS %:       -nan   MPKI: 0
ITLB WRITEBACK ACCESS:          0  HIT:          0  MISS:          0  HIT %:       -nan  MISS %:       -nan   MPKI: 0
DTLB TOTAL     ACCESS:   25927436  HIT:   25923398  MISS:       4038  HIT %:    99.9844  MISS %:  0.0155742   MPKI: 0.02019
DTLB LOAD      ACCESS:          0  HIT:          0  MISS:          0  HIT %:       -nan  MISS %:       -nan   MPKI: 0
DTLB RFO       ACCESS:          0  HIT:          0  MISS:          0  HIT %:       -nan  MISS %:       -nan   MPKI: 0
DTLB PREFETCH  ACCESS:          0  HIT:          0  MISS:          0  HIT %:       -nan  MISS %:       -nan   MPKI: 0
DTLB WRITEBACK ACCESS:          0  HIT:          0  MISS:          0  HIT %:       -nan  MISS %:       -nan   MPKI: 0
STLB TOTAL     ACCESS:    4163714  HIT:    4159675  MISS:       4039  HIT %:     99.903  MISS %:  0.0970047   MPKI: 0.020195
STLB LOAD      ACCESS:          0  HIT:          0  MISS:          0  HIT %:       -nan  MISS %:       -nan   MPKI: 0
STLB RFO       ACCESS:          0  HIT:          0  MISS:          0  HIT %:       -nan  MISS %:       -nan   MPKI: 0
STLB PREFETCH  ACCESS:          0  HIT:          0  MISS:          0  HIT %:       -nan  MISS %:       -nan   MPKI: 0
STLB WRITEBACK ACCESS:          0  HIT:          0  MISS:          0  HIT %:       -nan  MISS %:       -nan   MPKI: 0
L1D TOTAL     ACCESS:   48526659  HIT:   48268374  MISS:     258285  HIT %:    99.4677  MISS %:   0.532254   MPKI: 1.29142
L1D LOAD      ACCESS:   19131824  HIT:   19128772  MISS:       3052  HIT %:     99.984  MISS %:  0.0159525   MPKI: 0.01526
L1D RFO       ACCESS:    9999877  HIT:    9947341  MISS:      52536  HIT %:    99.4746  MISS %:   0.525366   MPKI: 0.26268
L1D PREFETCH  ACCESS:   19394958  HIT:   19192261  MISS:     202697  HIT %:    98.9549  MISS %:     1.0451   MPKI: 1.01348
L1D WRITEBACK ACCESS:          0  HIT:          0  MISS:          0  HIT %:       -nan  MISS %:       -nan   MPKI: 0
L1I TOTAL     ACCESS:   39293113  HIT:   39293113  MISS:          0  HIT %:        100  MISS %:          0   MPKI: 0
L1I LOAD      ACCESS:   39293113  HIT:   39293113  MISS:          0  HIT %:        100  MISS %:          0   MPKI: 0
L1I RFO       ACCESS:          0  HIT:          0  MISS:          0  HIT %:       -nan  MISS %:       -nan   MPKI: 0
L1I PREFETCH  ACCESS:          0  HIT:          0  MISS:          0  HIT %:       -nan  MISS %:       -nan   MPKI: 0
L1I WRITEBACK ACCESS:          0  HIT:          0  MISS:          0  HIT %:       -nan  MISS %:       -nan   MPKI: 0
L2C TOTAL     ACCESS:    4012277  HIT:    3749247  MISS:     263030  HIT %:    93.4444  MISS %:    6.55563   MPKI: 1.31515
L2C LOAD      ACCESS:       2653  HIT:         19  MISS:       2634  HIT %:    0.71617  MISS %:    99.2838   MPKI: 0.01317
L2C RFO       ACCESS:      52536  HIT:          0  MISS:      52536  HIT %:          0  MISS %:        100   MPKI: 0.26268
L2C PREFETCH  ACCESS:    3476879  HIT:    3273759  MISS:     203120  HIT %:     94.158  MISS %:    5.84202   MPKI: 1.0156
L2C WRITEBACK ACCESS:      52539  HIT:      48331  MISS:       4208  HIT %:    91.9907  MISS %:    8.00929   MPKI: 0.02104
PSCL5 TOTAL     ACCESS:     427670  HIT:     427670  MISS:          0  HIT %:        100  MISS %:          0   MPKI: 0
PSCL5 LOAD      ACCESS:          0  HIT:          0  MISS:          0  HIT %:       -nan  MISS %:       -nan   MPKI: 0
PSCL5 RFO       ACCESS:          0  HIT:          0  MISS:          0  HIT %:       -nan  MISS %:       -nan   MPKI: 0
PSCL5 PREFETCH  ACCESS:          0  HIT:          0  MISS:          0  HIT %:       -nan  MISS %:       -nan   MPKI: 0
PSCL5 WRITEBACK ACCESS:          0  HIT:          0  MISS:          0  HIT %:       -nan  MISS %:       -nan   MPKI: 0
PSCL4 TOTAL     ACCESS:     427670  HIT:     427670  MISS:          0  HIT %:        100  MISS %:          0   MPKI: 0
PSCL4 LOAD      ACCESS:          0  HIT:          0  MISS:          0  HIT %:       -nan  MISS %:       -nan   MPKI: 0
PSCL4 RFO       ACCESS:          0  HIT:          0  MISS:          0  HIT %:       -nan  MISS %:       -nan   MPKI: 0
PSCL4 PREFETCH  ACCESS:          0  HIT:          0  MISS:          0  HIT %:       -nan  MISS %:       -nan   MPKI: 0
PSCL4 WRITEBACK ACCESS:          0  HIT:          0  MISS:          0  HIT %:       -nan  MISS %:       -nan   MPKI: 0
PSCL3 TOTAL     ACCESS:     427670  HIT:     427670  MISS:          0  HIT %:        100  MISS %:          0   MPKI: 0
PSCL3 LOAD      ACCESS:          0  HIT:          0  MISS:          0  HIT %:       -nan  MISS %:       -nan   MPKI: 0
PSCL3 RFO       ACCESS:          0  HIT:          0  MISS:          0  HIT %:       -nan  MISS %:       -nan   MPKI: 0
PSCL3 PREFETCH  ACCESS:          0  HIT:          0  MISS:          0  HIT %:       -nan  MISS %:       -nan   MPKI: 0
PSCL3 WRITEBACK ACCESS:          0  HIT:          0  MISS:          0  HIT %:       -nan  MISS %:       -nan   MPKI: 0
PSCL2 TOTAL     ACCESS:     426853  HIT:     426846  MISS:          7  HIT %:    99.9984  MISS %: 0.00163991   MPKI: 3.5e-05
PSCL2 LOAD      ACCESS:          0  HIT:          0  MISS:          0  HIT %:       -nan  MISS %:       -nan   MPKI: 0
PSCL2 RFO       ACCESS:          0  HIT:          0  MISS:          0  HIT %:       -nan  MISS %:       -nan   MPKI: 0
PSCL2 PREFETCH  ACCESS:          0  HIT:          0  MISS:          0  HIT %:       -nan  MISS %:       -nan   MPKI: 0
PSCL2 WRITEBACK ACCESS:          0  HIT:          0  MISS:          0  HIT %:       -nan  MISS %:       -nan   MPKI: 0
LLC TOTAL     ACCESS:     311271  HIT:      28377  MISS:     282894  HIT %:    9.11649  MISS %:    90.8835   MPKI: 1.41447
LLC LOAD      ACCESS:       2452  HIT:          0  MISS:       2452  HIT %:          0  MISS %:        100   MPKI: 0.01226
LLC RFO       ACCESS:      52536  HIT:          0  MISS:      52536  HIT %:          0  MISS %:        100   MPKI: 0.26268
LLC PREFETCH  ACCESS:     203302  HIT:          0  MISS:     203302  HIT %:          0  MISS %:        100   MPKI: 1.01651
LLC WRITEBACK ACCESS:      52449  HIT:      28360  MISS:      24089  HIT %:    54.0716  MISS %:    45.9284   MPKI: 0.120445

RAW hits: 2660671
Loads Generated: 28016354
Loads sent to L1D: 25355683
Stores Generated: 10086746
Stores sent to L1D: 10086746

Region of Interest Statistics

CPU 0 cumulative IPC: 0.910777 instructions: 200000003 cycles: 219592823
ITLB TOTAL     ACCESS:   31410021  HIT:   31410019  MISS:          2  HIT %:        100  MISS %: 6.36739e-06   MPKI: 1e-05
ITLB LOAD TRANSLATION ACCESS:   31410021  HIT:   31410019  MISS:          2  HIT %:        100  MISS %: 6.36739e-06   MPKI: 1e-05
ITLB PREFETCH  REQUESTED:          0  ISSUED:          0  USEFUL:          0  USELESS:          0
ITLB USEFUL LOAD PREFETCHES:          0 PREFETCH ISSUED TO LOWER LEVEL:          0  ACCURACY: -nan
ITLB TIMELY PREFETCHES:          0 LATE PREFETCHES: 0 DROPPED PREFETCHES: 0
ITLB PREFETCHES SAME FILL-ORIGIN LEVEL: 0 DIFFERENT FILL-ORIGIN LEVEL: 0
ITLB AVERAGE MISS LATENCY: 676 cycles
ITLB RQ	ACCESS:   47102163	FORWARD:          0	MERGED:   13248241	TO_CACHE:   33853922

DTLB TOTAL     ACCESS:   27364024  HIT:   27113748  MISS:     250276  HIT %:    99.0854  MISS %:   0.914617   MPKI: 1.25138
DTLB LOAD TRANSLATION ACCESS:   27364024  HIT:   27113748  MISS:     250276  HIT %:    99.0854  MISS %:   0.914617   MPKI: 1.25138
DTLB PREFETCH  REQUESTED:          0  ISSUED:          0  USEFUL:          0  USELESS:          0
DTLB USEFUL LOAD PREFETCHES:          0 PREFETCH ISSUED TO LOWER LEVEL:          0  ACCURACY: -nan
DTLB TIMELY PREFETCHES:          0 LATE PREFETCHES: 0 DROPPED PREFETCHES: 0
DTLB PREFETCHES SAME FILL-ORIGIN LEVEL: 0 DIFFERENT FILL-ORIGIN LEVEL: 0
DTLB AVERAGE MISS LATENCY: 32.0114 cycles
DTLB RQ	ACCESS:   38325423	FORWARD:          0	MERGED:    8849596	TO_CACHE:   29475827

STLB TOTAL     ACCESS:   13264961  HIT:   13031642  MISS:     233319  HIT %:    98.2411  MISS %:    1.75891   MPKI: 1.16659
STLB LOAD TRANSLATION ACCESS:     250278  HIT:     203253  MISS:      47025  HIT %:    81.2109  MISS %:    18.7891   MPKI: 0.235125
STLB TRANSLATION FROM L1D PREFETCHER ACCESS:   13014683  HIT:   12828389  MISS:     186294  HIT %:    98.5686  MISS %:    1.43141   MPKI: 0.93147
STLB PREFETCH  REQUESTED:          0  ISSUED:          0  USEFUL:     204904  USELESS:          9
STLB USEFUL LOAD PREFETCHES:     204904 PREFETCH ISSUED TO LOWER LEVEL:          0  ACCURACY: inf
STLB TIMELY PREFETCHES:     204904 LATE PREFETCHES: 3719 DROPPED PREFETCHES: 333947
STLB PREFETCHES SAME FILL-ORIGIN LEVEL: 0 DIFFERENT FILL-ORIGIN LEVEL: 0
STLB AVERAGE MISS LATENCY: 111.441 cycles
STLB RQ	ACCESS:   38256143	FORWARD:          0	MERGED:   23209589	TO_CACHE:   15046554

STLB Hit, L1D data hit: 0
STLB Hit, L2C data hit: 0
STLB Hit, LLC data hit: 0
STLB Hit, LLC data miss: 0
STLB STLB hints to L2: 0
L1D TOTAL     ACCESS:   55229838  HIT:   51972139  MISS:    3257699  HIT %:    94.1016  MISS %:    5.89844   MPKI: 16.2885
L1D LOAD      ACCESS:   24532187  HIT:   23800762  MISS:     731425  HIT %:    97.0185  MISS %:    2.98149   MPKI: 3.65712
L1D RFO       ACCESS:    7780835  HIT:    7244236  MISS:     536599  HIT %:    93.1036  MISS %:    6.89642   MPKI: 2.68299
L1D PREFETCH  ACCESS:   22916816  HIT:   20927141  MISS:    1989675  HIT %:    91.3178  MISS %:    8.68216   MPKI: 9.94837
L1D PREFETCH  REQUESTED:   92436028  ISSUED:   84094875  USEFUL:    2110988  USELESS:      40339
L1D USEFUL LOAD PREFETCHES:    2110988 PREFETCH ISSUED TO LOWER LEVEL:   11192211  ACCURACY: 18.8612
L1D TIMELY PREFETCHES:    2110988 LATE PREFETCHES: 60442 DROPPED PREFETCHES: 1176450
L1D PREFETCHES SAME FILL-ORIGIN LEVEL: 2255257 DIFFERENT FILL-ORIGIN LEVEL: 8936954
L1D AVERAGE MISS LATENCY: 380.45 cycles
L1D RQ	ACCESS:   56866595	FORWARD:          0	MERGED:   30260463	TO_CACHE:   26604058
L1D WQ	ACCESS:   11721486	FORWARD:       2074	MERGED:        121	TO_CACHE:   11721365
L1D PQ	ACCESS:   46116378	FORWARD:          0	MERGED:    8137881	TO_CACHE:   37978497

L1D UNIQUE REGIONS ACCESSED: 0
L1D REGIONS CONFLICTS: 0
L1D Cross Page Prefetch Requests: 48597180
L1D Same Page Prefetch Requests: 19556527
L1D ROI Sum of L1D PQ occupancy: 836081110
L1D PREFETCHES PUSHED FROM L2C: 0
L1I TOTAL     ACCESS:   43591809  HIT:   43591767  MISS:         42  HIT %:    99.9999  MISS %: 9.63484e-05   MPKI: 0.00021
L1I LOAD      ACCESS:   43591809  HIT:   43591767  MISS:         42  HIT %:    99.9999  MISS %: 9.63484e-05   MPKI: 0.00021
L1I PREFETCH  REQUESTED:          0  ISSUED:          0  USEFUL:          0  USELESS:          0
L1I USEFUL LOAD PREFETCHES:          0 PREFETCH ISSUED TO LOWER LEVEL:          0  ACCURACY: -nan
L1I TIMELY PREFETCHES:          0 LATE PREFETCHES: 0 DROPPED PREFETCHES: 0
L1I PREFETCHES SAME FILL-ORIGIN LEVEL: 0 DIFFERENT FILL-ORIGIN LEVEL: 0
L1I AVERAGE MISS LATENCY: 371.81 cycles
L1I RQ	ACCESS:   59251905	FORWARD:          0	MERGED:   12149742	TO_CACHE:   47102163

BTB TOTAL     ACCESS:    7191898  HIT:    7191840  MISS:         58  HIT %:    99.9992  MISS %: 0.000806463   MPKI: 0.00029
BTB BRANCH_DIRECT_JUMP	ACCESS:          3  HIT:          0  MISS:          3
BTB BRANCH_INDIRECT	ACCESS:          0  HIT:          0  MISS:          0
BTB BRANCH_CONDITIONAL	ACCESS:    6088515  HIT:    6088495  MISS:         20
BTB BRANCH_DIRECT_CALL	ACCESS:     551690  HIT:     551673  MISS:         17
BTB BRANCH_INDIRECT_CALL	ACCESS:          0  HIT:          0  MISS:          0
BTB BRANCH_RETURN	ACCESS:     551690  HIT:     551672  MISS:         18
BTB BRANCH_OTHER ACCESS:          0  HIT:          0  MISS:          0

L2C TOTAL     ACCESS:    9101627  HIT:    5255305  MISS:    3846322  HIT %:    57.7403  MISS %:    42.2597   MPKI: 19.2316
L2C LOAD      ACCESS:     672588  HIT:     315822  MISS:     356766  HIT %:    46.9562  MISS %:    53.0438   MPKI: 1.78383
L2C DATA LOAD MPKI: 1.78362
L2C INSTRUCTION LOAD MPKI: 0.00021
L2C RFO       ACCESS:     536599  HIT:          2  MISS:     536597  HIT %: 0.000372718  MISS %:    99.9996   MPKI: 2.68298
L2C PREFETCH  ACCESS:    6304307  HIT:    3434596  MISS:    2869711  HIT %:    54.4802  MISS %:    45.5198   MPKI: 14.3486
L2C DATA PREFETCH MPKI: 14.3486
L2C INSTRUCTION PREFETCH MPKI: 0
L2C WRITEBACK ACCESS:    1017046  HIT:     963420  MISS:      53626  HIT %:    94.7273  MISS %:    5.27272   MPKI: 0.26813
L2C LOAD TRANSLATION ACCESS:      46713  HIT:      45156  MISS:       1557  HIT %:    96.6669  MISS %:    3.33312   MPKI: 0.007785
L2C TRANSLATION FROM L1D PREFETCHER ACCESS:     524374  HIT:     496309  MISS:      28065  HIT %:    94.6479  MISS %:     5.3521   MPKI: 0.140325
L2C PREFETCH  REQUESTED:          0  ISSUED:          0  USEFUL:     351806  USELESS:    2745696
L2C USEFUL LOAD PREFETCHES:     351806 PREFETCH ISSUED TO LOWER LEVEL:    3187644  ACCURACY: 11.0366
L2C TIMELY PREFETCHES:     351806 LATE PREFETCHES: 118713 DROPPED PREFETCHES: 0
L2C PREFETCHES SAME FILL-ORIGIN LEVEL: 1956498 DIFFERENT FILL-ORIGIN LEVEL: 0
L2C AVERAGE MISS LATENCY: 566.089 cycles
L2C RQ	ACCESS:    1862559	FORWARD:          0	MERGED:          0	TO_CACHE:    1862559
L2C WQ	ACCESS:    1071279	FORWARD:          0	MERGED:          0	TO_CACHE:    1071279
L2C PQ	ACCESS:   10044150	FORWARD:          0	MERGED:      87853	TO_CACHE:    9956297

L2C Instructions Evicting Data 42
L2C Translations Evicting Data 30198
L2C Data Evicting Data 3992297
L2C Instructions Evicting Instructions 0
L2C Translations Evicting Instructions 2
L2C Data Evicting Instructions 40
L2C Instructions Evicting Translations 0
L2C Translations Evicting Translations 1763
L2C Data Evicting Translations 27617
L2C Dense regions hint from L2: 0
PSCL5 TOTAL     ACCESS:     570619  HIT:     570619  MISS:          0  HIT %:        100  MISS %:          0   MPKI: 0
PSCL5 LOAD TRANSLATION ACCESS:      46659  HIT:      46659  MISS:          0  HIT %:        100  MISS %:          0   MPKI: 0
PSCL5 TRANSLATION FROM L1D PREFETCHER ACCESS:     523960  HIT:     523960  MISS:          0  HIT %:        100  MISS %:          0   MPKI: 0
PSCL5 PREFETCH  REQUESTED:          0  ISSUED:          0  USEFUL:          0  USELESS:          0
PSCL5 USEFUL LOAD PREFETCHES:          0 PREFETCH ISSUED TO LOWER LEVEL:          0  ACCURACY: -nan
PSCL5 TIMELY PREFETCHES:          0 LATE PREFETCHES: 0 DROPPED PREFETCHES: 0
PSCL5 PREFETCHES SAME FILL-ORIGIN LEVEL: 0 DIFFERENT FILL-ORIGIN LEVEL: 0

PSCL4 TOTAL     ACCESS:     570619  HIT:     570619  MISS:          0  HIT %:        100  MISS %:          0   MPKI: 0
PSCL4 LOAD TRANSLATION ACCESS:      46659  HIT:      46659  MISS:          0  HIT %:        100  MISS %:          0   MPKI: 0
PSCL4 TRANSLATION FROM L1D PREFETCHER ACCESS:     523960  HIT:     523960  MISS:          0  HIT %:        100  MISS %:          0   MPKI: 0
PSCL4 PREFETCH  REQUESTED:          0  ISSUED:          0  USEFUL:          0  USELESS:          0
PSCL4 USEFUL LOAD PREFETCHES:          0 PREFETCH ISSUED TO LOWER LEVEL:          0  ACCURACY: -nan
PSCL4 TIMELY PREFETCHES:          0 LATE PREFETCHES: 0 DROPPED PREFETCHES: 0
PSCL4 PREFETCHES SAME FILL-ORIGIN LEVEL: 0 DIFFERENT FILL-ORIGIN LEVEL: 0

PSCL3 TOTAL     ACCESS:     570619  HIT:     570619  MISS:          0  HIT %:        100  MISS %:          0   MPKI: 0
PSCL3 LOAD TRANSLATION ACCESS:      46659  HIT:      46659  MISS:          0  HIT %:        100  MISS %:          0   MPKI: 0
PSCL3 TRANSLATION FROM L1D PREFETCHER ACCESS:     523960  HIT:     523960  MISS:          0  HIT %:        100  MISS %:          0   MPKI: 0
PSCL3 PREFETCH  REQUESTED:          0  ISSUED:          0  USEFUL:          0  USELESS:          0
PSCL3 USEFUL LOAD PREFETCHES:          0 PREFETCH ISSUED TO LOWER LEVEL:          0  ACCURACY: -nan
PSCL3 TIMELY PREFETCHES:          0 LATE PREFETCHES: 0 DROPPED PREFETCHES: 0
PSCL3 PREFETCHES SAME FILL-ORIGIN LEVEL: 0 DIFFERENT FILL-ORIGIN LEVEL: 0

PSCL2 TOTAL     ACCESS:     569824  HIT:     569337  MISS:        487  HIT %:    99.9145  MISS %:   0.085465   MPKI: 0.002435
PSCL2 LOAD TRANSLATION ACCESS:      47019  HIT:      46532  MISS:        487  HIT %:    98.9642  MISS %:    1.03575   MPKI: 0.002435
PSCL2 TRANSLATION FROM L1D PREFETCHER ACCESS:     522805  HIT:     522805  MISS:          0  HIT %:        100  MISS %:          0   MPKI: 0
PSCL2 PREFETCH  REQUESTED:          0  ISSUED:          0  USEFUL:          0  USELESS:          0
PSCL2 USEFUL LOAD PREFETCHES:          0 PREFETCH ISSUED TO LOWER LEVEL:          0  ACCURACY: -nan
PSCL2 TIMELY PREFETCHES:          0 LATE PREFETCHES: 0 DROPPED PREFETCHES: 0
PSCL2 PREFETCHES SAME FILL-ORIGIN LEVEL: 0 DIFFERENT FILL-ORIGIN LEVEL: 0

LLC TOTAL     ACCESS:    4814048  HIT:     216723  MISS:    4597325  HIT %:    4.50189  MISS %:    95.4981   MPKI: 22.9866
LLC LOAD      ACCESS:     238479  HIT:       1513  MISS:     236966  HIT %:   0.634437  MISS %:    99.3656   MPKI: 1.18483
LLC RFO       ACCESS:     536597  HIT:         59  MISS:     536538  HIT %:  0.0109952  MISS %:     99.989   MPKI: 2.68269
LLC PREFETCH  ACCESS:    2987999  HIT:       4139  MISS:    2983860  HIT %:   0.138521  MISS %:    99.8615   MPKI: 14.9193
LLC WRITEBACK ACCESS:    1021351  HIT:     210826  MISS:     810525  HIT %:    20.6419  MISS %:    79.3581   MPKI: 4.05262
LLC LOAD TRANSLATION ACCESS:       1557  HIT:         56  MISS:       1501  HIT %:    3.59666  MISS %:    96.4033   MPKI: 0.007505
LLC TRANSLATION FROM L1D PREFETCHER ACCESS:      28065  HIT:        130  MISS:      27935  HIT %:    0.46321  MISS %:    99.5368   MPKI: 0.139675
LLC PREFETCH  REQUESTED:          0  ISSUED:          0  USEFUL:        269  USELESS:    4609600
LLC USEFUL LOAD PREFETCHES:        269 PREFETCH ISSUED TO LOWER LEVEL:    4615654  ACCURACY: 0.00582799
LLC TIMELY PREFETCHES:        269 LATE PREFETCHES: 0 DROPPED PREFETCHES: 0
LLC PREFETCHES SAME FILL-ORIGIN LEVEL: 0 DIFFERENT FILL-ORIGIN LEVEL: 0
LLC AVERAGE MISS LATENCY: 748.736 cycles
LLC RQ	ACCESS:    2284515	FORWARD:          0	MERGED:          0	TO_CACHE:    2284515
LLC WQ	ACCESS:    2478690	FORWARD:          0	MERGED:          0	TO_CACHE:    2478690
LLC PQ	ACCESS:    4641431	FORWARD:          0	MERGED:          0	TO_CACHE:    4641431

LLC Dense regions hint to LLC: 0

RAW hits: 5
Loads Generated: 52834937
Loads sent to L1D: 52834927
Stores Generated: 11034478
Stores sent to L1D: 11034478
Major fault: 0 Minor fault: 109471
Allocated PAGES: 153445

CPU 1 cumulative IPC: 1.09821 instructions: 200000000 cycles: 182113958
ITLB TOTAL     ACCESS:   33165194  HIT:   33165194  MISS:          0  HIT %:        100  MISS %:          0   MPKI: 0
ITLB LOAD TRANSLATION ACCESS:   33165194  HIT:   33165194  MISS:          0  HIT %:        100  MISS %:          0   MPKI: 0
ITLB PREFETCH  REQUESTED:          0  ISSUED:          0  USEFUL:          0  USELESS:          0
ITLB USEFUL LOAD PREFETCHES:          0 PREFETCH ISSUED TO LOWER LEVEL:          0  ACCURACY: -nan
ITLB TIMELY PREFETCHES:          0 LATE PREFETCHES: 0 DROPPED PREFETCHES: 0
ITLB PREFETCHES SAME FILL-ORIGIN LEVEL: 0 DIFFERENT FILL-ORIGIN LEVEL: 0
ITLB AVERAGE MISS LATENCY: -nan cycles
ITLB RQ	ACCESS:   42756057	FORWARD:          0	MERGED:      23737	TO_CACHE:   42732320

DTLB TOTAL     ACCESS:   20683766  HIT:   20664063  MISS:      19703  HIT %:    99.9047  MISS %:  0.0952583   MPKI: 0.098515
DTLB LOAD TRANSLATION ACCESS:   20683766  HIT:   20664063  MISS:      19703  HIT %:    99.9047  MISS %:  0.0952583   MPKI: 0.098515
DTLB PREFETCH  REQUESTED:          0  ISSUED:          0  USEFUL:          0  USELESS:          0
DTLB USEFUL LOAD PREFETCHES:          0 PREFETCH ISSUED TO LOWER LEVEL:          0  ACCURACY: -nan
DTLB TIMELY PREFETCHES:          0 LATE PREFETCHES: 0 DROPPED PREFETCHES: 0
DTLB PREFETCHES SAME FILL-ORIGIN LEVEL: 0 DIFFERENT FILL-ORIGIN LEVEL: 0
DTLB AVERAGE MISS LATENCY: 181.131 cycles
DTLB RQ	ACCESS:   26839338	FORWARD:          0	MERGED:      95651	TO_CACHE:   26743687

STLB TOTAL     ACCESS:   10043671  HIT:   10023968  MISS:      19703  HIT %:    99.8038  MISS %:   0.196173   MPKI: 0.098515
STLB LOAD TRANSLATION ACCESS:      19703  HIT:          0  MISS:      19703  HIT %:          0  MISS %:        100   MPKI: 0.098515
STLB TRANSLATION FROM L1D PREFETCHER ACCESS:   10023968  HIT:   10023968  MISS:          0  HIT %:        100  MISS %:          0   MPKI: 0
STLB PREFETCH  REQUESTED:          0  ISSUED:          0  USEFUL:       2635  USELESS:          0
STLB USEFUL LOAD PREFETCHES:       2635 PREFETCH ISSUED TO LOWER LEVEL:          0  ACCURACY: inf
STLB TIMELY PREFETCHES:       2635 LATE PREFETCHES: 1886 DROPPED PREFETCHES: 998225
STLB PREFETCHES SAME FILL-ORIGIN LEVEL: 0 DIFFERENT FILL-ORIGIN LEVEL: 0
STLB AVERAGE MISS LATENCY: 187.413 cycles
STLB RQ	ACCESS:   86725692	FORWARD:          0	MERGED:   72147553	TO_CACHE:   14578139

STLB Hit, L1D data hit: 0
STLB Hit, L2C data hit: 0
STLB Hit, LLC data hit: 0
STLB Hit, LLC data miss: 0
STLB STLB hints to L2: 0
L1D TOTAL     ACCESS:   70530657  HIT:   69269665  MISS:    1260992  HIT %:    98.2121  MISS %:    1.78786   MPKI: 6.30496
L1D LOAD      ACCESS:   15369798  HIT:   15355871  MISS:      13927  HIT %:    99.9094  MISS %:  0.0906128   MPKI: 0.069635
L1D RFO       ACCESS:    1083384  HIT:     415253  MISS:     668131  HIT %:    38.3293  MISS %:    61.6707   MPKI: 3.34065
L1D PREFETCH  ACCESS:   54077475  HIT:   53498541  MISS:     578934  HIT %:    98.9294  MISS %:    1.07056   MPKI: 2.89467
L1D PREFETCH  REQUESTED:  238597028  ISSUED:  238537058  USEFUL:     745281  USELESS:          7
L1D USEFUL LOAD PREFETCHES:     745281 PREFETCH ISSUED TO LOWER LEVEL:    3762871  ACCURACY: 19.8062
L1D TIMELY PREFETCHES:     745281 LATE PREFETCHES: 10618 DROPPED PREFETCHES: 2861748
L1D PREFETCHES SAME FILL-ORIGIN LEVEL: 755906 DIFFERENT FILL-ORIGIN LEVEL: 3006965
L1D AVERAGE MISS LATENCY: 590.764 cycles
L1D RQ	ACCESS:   48686107	FORWARD:          0	MERGED:   28843643	TO_CACHE:   19842464
L1D WQ	ACCESS:    6996874	FORWARD:          0	MERGED:          0	TO_CACHE:    6996874
L1D PQ	ACCESS:  151836948	FORWARD:          0	MERGED:   65136838	TO_CACHE:   86700110

L1D UNIQUE REGIONS ACCESSED: 0
L1D REGIONS CONFLICTS: 0
L1D Cross Page Prefetch Requests: 18886509
L1D Same Page Prefetch Requests: 201205680
L1D ROI Sum of L1D PQ occupancy: 1079201651
L1D PREFETCHES PUSHED FROM L2C: 0
L1I TOTAL     ACCESS:   33183649  HIT:   33183649  MISS:          0  HIT %:        100  MISS %:          0   MPKI: 0
L1I LOAD      ACCESS:   33183649  HIT:   33183649  MISS:          0  HIT %:        100  MISS %:          0   MPKI: 0
L1I PREFETCH  REQUESTED:          0  ISSUED:          0  USEFUL:          0  USELESS:          0
L1I USEFUL LOAD PREFETCHES:          0 PREFETCH ISSUED TO LOWER LEVEL:          0  ACCURACY: -nan
L1I TIMELY PREFETCHES:          0 LATE PREFETCHES: 0 DROPPED PREFETCHES: 0
L1I PREFETCHES SAME FILL-ORIGIN LEVEL: 0 DIFFERENT FILL-ORIGIN LEVEL: 0
L1I AVERAGE MISS LATENCY: -nan cycles
L1I RQ	ACCESS:  117806562	FORWARD:          0	MERGED:   75050505	TO_CACHE:   42756057

BTB TOTAL     ACCESS:   75609402  HIT:   75609399  MISS:          3  HIT %:        100  MISS %: 3.96776e-06   MPKI: 1.5e-05
BTB BRANCH_DIRECT_JUMP	ACCESS:          0  HIT:          0  MISS:          0
BTB BRANCH_INDIRECT	ACCESS:          0  HIT:          0  MISS:          0
BTB BRANCH_CONDITIONAL	ACCESS:   75609402  HIT:   75609399  MISS:          3
BTB BRANCH_DIRECT_CALL	ACCESS:          0  HIT:          0  MISS:          0
BTB BRANCH_INDIRECT_CALL	ACCESS:          0  HIT:          0  MISS:          0
BTB BRANCH_RETURN	ACCESS:          0  HIT:          0  MISS:          0
BTB BRANCH_OTHER ACCESS:          0  HIT:          0  MISS:          0

L2C TOTAL     ACCESS:    3679577  HIT:    2376425  MISS:    1303152  HIT %:    64.5842  MISS %:    35.4158   MPKI: 6.51576
L2C LOAD      ACCESS:       5929  HIT:          0  MISS:       5929  HIT %:          0  MISS %:        100   MPKI: 0.029645
L2C DATA LOAD MPKI: 0.029645
L2C INSTRUCTION LOAD MPKI: 0
L2C RFO       ACCESS:     668131  HIT:          0  MISS:     668131  HIT %:          0  MISS %:        100   MPKI: 3.34065
L2C PREFETCH  ACCESS:    1317593  HIT:     730651  MISS:     586942  HIT %:    55.4535  MISS %:    44.5465   MPKI: 2.93471
L2C DATA PREFETCH MPKI: 2.93471
L2C INSTRUCTION PREFETCH MPKI: 0
L2C WRITEBACK ACCESS:     668114  HIT:     628503  MISS:      39611  HIT %:    94.0712  MISS %:    5.92878   MPKI: 0.198055
L2C LOAD TRANSLATION ACCESS:      19705  HIT:      18337  MISS:       1368  HIT %:    93.0576  MISS %:     6.9424   MPKI: 0.00684
L2C TRANSLATION FROM L1D PREFETCHER ACCESS:    1000105  HIT:     998934  MISS:       1171  HIT %:    99.8829  MISS %:   0.117088   MPKI: 0.005855
L2C PREFETCH  REQUESTED:          0  ISSUED:          0  USEFUL:       1577  USELESS:     756102
L2C USEFUL LOAD PREFETCHES:       1577 PREFETCH ISSUED TO LOWER LEVEL:     755997  ACCURACY: 0.208599
L2C TIMELY PREFETCHES:       1577 LATE PREFETCHES: 6 DROPPED PREFETCHES: 0
L2C PREFETCHES SAME FILL-ORIGIN LEVEL: 156546 DIFFERENT FILL-ORIGIN LEVEL: 0
L2C AVERAGE MISS LATENCY: 612.06 cycles
L2C RQ	ACCESS:    1906990	FORWARD:          0	MERGED:          0	TO_CACHE:    1906990
L2C WQ	ACCESS:     874571	FORWARD:          0	MERGED:          0	TO_CACHE:     874571
L2C PQ	ACCESS:    3762871	FORWARD:          0	MERGED:       3038	TO_CACHE:    3759833

L2C Instructions Evicting Data 0
L2C Translations Evicting Data 3296
L2C Data Evicting Data 1633996
L2C Instructions Evicting Instructions 0
L2C Translations Evicting Instructions 0
L2C Data Evicting Instructions 0
L2C Instructions Evicting Translations 0
L2C Translations Evicting Translations 3
L2C Data Evicting Translations 3198
L2C Dense regions hint from L2: 0
PSCL5 TOTAL     ACCESS:    1019808  HIT:    1019808  MISS:          0  HIT %:        100  MISS %:          0   MPKI: 0
PSCL5 LOAD TRANSLATION ACCESS:      19703  HIT:      19703  MISS:          0  HIT %:        100  MISS %:          0   MPKI: 0
PSCL5 TRANSLATION FROM L1D PREFETCHER ACCESS:    1000105  HIT:    1000105  MISS:          0  HIT %:        100  MISS %:          0   MPKI: 0
PSCL5 PREFETCH  REQUESTED:          0  ISSUED:          0  USEFUL:          0  USELESS:          0
PSCL5 USEFUL LOAD PREFETCHES:          0 PREFETCH ISSUED TO LOWER LEVEL:          0  ACCURACY: -nan
PSCL5 TIMELY PREFETCHES:          0 LATE PREFETCHES: 0 DROPPED PREFETCHES: 0
PSCL5 PREFETCHES SAME FILL-ORIGIN LEVEL: 0 DIFFERENT FILL-ORIGIN LEVEL: 0

PSCL4 TOTAL     ACCESS:    1019808  HIT:    1019808  MISS:          0  HIT %:        100  MISS %:          0   MPKI: 0
PSCL4 LOAD TRANSLATION ACCESS:      19703  HIT:      19703  MISS:          0  HIT %:        100  MISS %:          0   MPKI: 0
PSCL4 TRANSLATION FROM L1D PREFETCHER ACCESS:    1000105  HIT:    1000105  MISS:          0  HIT %:        100  MISS %:          0   MPKI: 0
PSCL4 PREFETCH  REQUESTED:          0  ISSUED:          0  USEFUL:          0  USELESS:          0
PSCL4 USEFUL LOAD PREFETCHES:          0 PREFETCH ISSUED TO LOWER LEVEL:          0  ACCURACY: -nan
PSCL4 TIMELY PREFETCHES:          0 LATE PREFETCHES: 0 DROPPED PREFETCHES: 0
PSCL4 PREFETCHES SAME FILL-ORIGIN LEVEL: 0 DIFFERENT FILL-ORIGIN LEVEL: 0

PSCL3 TOTAL     ACCESS:    1019808  HIT:    1019808  MISS:          0  HIT %:        100  MISS %:          0   MPKI: 0
PSCL3 LOAD TRANSLATION ACCESS:      19703  HIT:      19703  MISS:          0  HIT %:        100  MISS %:          0   MPKI: 0
PSCL3 TRANSLATION FROM L1D PREFETCHER ACCESS:    1000105  HIT:    1000105  MISS:          0  HIT %:        100  MISS %:          0   MPKI: 0
PSCL3 PREFETCH  REQUESTED:          0  ISSUED:          0  USEFUL:          0  USELESS:          0
PSCL3 USEFUL LOAD PREFETCHES:          0 PREFETCH ISSUED TO LOWER LEVEL:          0  ACCURACY: -nan
PSCL3 TIMELY PREFETCHES:          0 LATE PREFETCHES: 0 DROPPED PREFETCHES: 0
PSCL3 PREFETCHES SAME FILL-ORIGIN LEVEL: 0 DIFFERENT FILL-ORIGIN LEVEL: 0

PSCL2 TOTAL     ACCESS:    1018117  HIT:    1018077  MISS:         40  HIT %:    99.9961  MISS %: 0.00392882   MPKI: 0.0002
PSCL2 LOAD TRANSLATION ACCESS:      19703  HIT:      19663  MISS:         40  HIT %:     99.797  MISS %:   0.203015   MPKI: 0.0002
PSCL2 TRANSLATION FROM L1D PREFETCHER ACCESS:     998414  HIT:     998414  MISS:          0  HIT %:        100  MISS %:          0   MPKI: 0
PSCL2 PREFETCH  REQUESTED:          0  ISSUED:          0  USEFUL:          0  USELESS:          0
PSCL2 USEFUL LOAD PREFETCHES:          0 PREFETCH ISSUED TO LOWER LEVEL:          0  ACCURACY: -nan
PSCL2 TIMELY PREFETCHES:          0 LATE PREFETCHES: 0 DROPPED PREFETCHES: 0
PSCL2 PREFETCHES SAME FILL-ORIGIN LEVEL: 0 DIFFERENT FILL-ORIGIN LEVEL: 0

LLC TOTAL     ACCESS:    1931897  HIT:     656800  MISS:    1275097  HIT %:    33.9977  MISS %:    66.0023   MPKI: 6.37549
LLC LOAD      ACCESS:       5929  HIT:          0  MISS:       5929  HIT %:          0  MISS %:        100   MPKI: 0.029645
LLC RFO       ACCESS:     668131  HIT:          0  MISS:     668131  HIT %:          0  MISS %:        100   MPKI: 3.34065
LLC PREFETCH  ACCESS:     586942  HIT:          0  MISS:     586942  HIT %:          0  MISS %:        100   MPKI: 2.93471
LLC WRITEBACK ACCESS:     668356  HIT:     656762  MISS:      11594  HIT %:    98.2653  MISS %:     1.7347   MPKI: 0.05797
LLC LOAD TRANSLATION ACCESS:       1368  HIT:         36  MISS:       1332  HIT %:    2.63158  MISS %:    97.3684   MPKI: 0.00666
LLC TRANSLATION FROM L1D PREFETCHER ACCESS:       1171  HIT:          2  MISS:       1169  HIT %:   0.170794  MISS %:    99.8292   MPKI: 0.005845
LLC PREFETCH  REQUESTED:          0  ISSUED:          0  USEFUL:        269  USELESS:    4609600
LLC USEFUL LOAD PREFETCHES:        269 PREFETCH ISSUED TO LOWER LEVEL:    4615654  ACCURACY: 0.00582799
LLC TIMELY PREFETCHES:        269 LATE PREFETCHES: 0 DROPPED PREFETCHES: 0
LLC PREFETCHES SAME FILL-ORIGIN LEVEL: 0 DIFFERENT FILL-ORIGIN LEVEL: 0
LLC AVERAGE MISS LATENCY: 2699.55 cycles
LLC RQ	ACCESS:    2284515	FORWARD:          0	MERGED:          0	TO_CACHE:    2284515
LLC WQ	ACCESS:    2478690	FORWARD:          0	MERGED:          0	TO_CACHE:    2478690
LLC PQ	ACCESS:    4641431	FORWARD:          0	MERGED:          0	TO_CACHE:    4641431

LLC Dense regions hint to LLC: 0

RAW hits: 0
Loads Generated: 37850886
Loads sent to L1D: 37850886
Stores Generated: 5345043
Stores sent to L1D: 5345046
Major fault: 0 Minor fault: 24882
Allocated PAGES: 153445

CPU 2 cumulative IPC: 1.1347 instructions: 200000000 cycles: 176258565
ITLB TOTAL     ACCESS:   33181855  HIT:   33181855  MISS:          0  HIT %:        100  MISS %:          0   MPKI: 0
ITLB LOAD TRANSLATION ACCESS:   33181855  HIT:   33181855  MISS:          0  HIT %:        100  MISS %:          0   MPKI: 0
ITLB PREFETCH  REQUESTED:          0  ISSUED:          0  USEFUL:          0  USELESS:          0
ITLB USEFUL LOAD PREFETCHES:          0 PREFETCH ISSUED TO LOWER LEVEL:          0  ACCURACY: -nan
ITLB TIMELY PREFETCHES:          0 LATE PREFETCHES: 0 DROPPED PREFETCHES: 0
ITLB PREFETCHES SAME FILL-ORIGIN LEVEL: 0 DIFFERENT FILL-ORIGIN LEVEL: 0
ITLB AVERAGE MISS LATENCY: -nan cycles
ITLB RQ	ACCESS:   44123628	FORWARD:          0	MERGED:          0	TO_CACHE:   44123628

DTLB TOTAL     ACCESS:   33830043  HIT:   33818865  MISS:      11178  HIT %:     99.967  MISS %:  0.0330416   MPKI: 0.05589
DTLB LOAD TRANSLATION ACCESS:   33830043  HIT:   33818865  MISS:      11178  HIT %:     99.967  MISS %:  0.0330416   MPKI: 0.05589
DTLB PREFETCH  REQUESTED:          0  ISSUED:          0  USEFUL:          0  USELESS:          0
DTLB USEFUL LOAD PREFETCHES:          0 PREFETCH ISSUED TO LOWER LEVEL:          0  ACCURACY: -nan
DTLB TIMELY PREFETCHES:          0 LATE PREFETCHES: 0 DROPPED PREFETCHES: 0
DTLB PREFETCHES SAME FILL-ORIGIN LEVEL: 0 DIFFERENT FILL-ORIGIN LEVEL: 0
DTLB AVERAGE MISS LATENCY: 174.914 cycles
DTLB RQ	ACCESS:   47051908	FORWARD:          0	MERGED:    2006308	TO_CACHE:   45045600

STLB TOTAL     ACCESS:   10543054  HIT:   10531865  MISS:      11189  HIT %:    99.8939  MISS %:   0.106127   MPKI: 0.055945
STLB LOAD TRANSLATION ACCESS:      11178  HIT:        190  MISS:      10988  HIT %:    1.69977  MISS %:    98.3002   MPKI: 0.05494
STLB TRANSLATION FROM L1D PREFETCHER ACCESS:   10531876  HIT:   10531675  MISS:        201  HIT %:    99.9981  MISS %: 0.00190849   MPKI: 0.001005
STLB PREFETCH  REQUESTED:          0  ISSUED:          0  USEFUL:       2044  USELESS:          0
STLB USEFUL LOAD PREFETCHES:       2044 PREFETCH ISSUED TO LOWER LEVEL:          0  ACCURACY: inf
STLB TIMELY PREFETCHES:       2044 LATE PREFETCHES: 1016 DROPPED PREFETCHES: 1346008
STLB PREFETCHES SAME FILL-ORIGIN LEVEL: 0 DIFFERENT FILL-ORIGIN LEVEL: 0
STLB AVERAGE MISS LATENCY: 186.404 cycles
STLB RQ	ACCESS:   79932365	FORWARD:          0	MERGED:   63622753	TO_CACHE:   16309612

STLB Hit, L1D data hit: 0
STLB Hit, L2C data hit: 0
STLB Hit, LLC data hit: 0
STLB Hit, LLC data miss: 0
STLB STLB hints to L2: 0
L1D TOTAL     ACCESS:   69577822  HIT:   68862522  MISS:     715300  HIT %:    98.9719  MISS %:    1.02806   MPKI: 3.5765
L1D LOAD      ACCESS:   12462847  HIT:   12456869  MISS:       5978  HIT %:     99.952  MISS %:  0.0479666   MPKI: 0.02989
L1D RFO       ACCESS:    6966591  HIT:    6608941  MISS:     357650  HIT %:    94.8662  MISS %:    5.13379   MPKI: 1.78825
L1D PREFETCH  ACCESS:   50148384  HIT:   49796712  MISS:     351672  HIT %:    99.2987  MISS %:   0.701263   MPKI: 1.75836
L1D PREFETCH  REQUESTED:  205071702  ISSUED:  205043217  USEFUL:     469590  USELESS:          6
L1D USEFUL LOAD PREFETCHES:     469590 PREFETCH ISSUED TO LOWER LEVEL:    2565934  ACCURACY: 18.3009
L1D TIMELY PREFETCHES:     469590 LATE PREFETCHES: 3341 DROPPED PREFETCHES: 3107404
L1D PREFETCHES SAME FILL-ORIGIN LEVEL: 472938 DIFFERENT FILL-ORIGIN LEVEL: 2092996
L1D AVERAGE MISS LATENCY: 559.826 cycles
L1D RQ	ACCESS:   56867555	FORWARD:          0	MERGED:   40254041	TO_CACHE:   16613514
L1D WQ	ACCESS:   30438394	FORWARD:          0	MERGED:          0	TO_CACHE:   30438394
L1D PQ	ACCESS:  125125716	FORWARD:          0	MERGED:   45208215	TO_CACHE:   79917501

L1D UNIQUE REGIONS ACCESSED: 0
L1D REGIONS CONFLICTS: 0
L1D Cross Page Prefetch Requests: 17076931
L1D Same Page Prefetch Requests: 160126078
L1D ROI Sum of L1D PQ occupancy: 1105296392
L1D PREFETCHES PUSHED FROM L2C: 0
L1I TOTAL     ACCESS:   33181854  HIT:   33181854  MISS:          0  HIT %:        100  MISS %:          0   MPKI: 0
L1I LOAD      ACCESS:   33181854  HIT:   33181854  MISS:          0  HIT %:        100  MISS %:          0   MPKI: 0
L1I PREFETCH  REQUESTED:          0  ISSUED:          0  USEFUL:          0  USELESS:          0
L1I USEFUL LOAD PREFETCHES:          0 PREFETCH ISSUED TO LOWER LEVEL:          0  ACCURACY: -nan
L1I TIMELY PREFETCHES:          0 LATE PREFETCHES: 0 DROPPED PREFETCHES: 0
L1I PREFETCHES SAME FILL-ORIGIN LEVEL: 0 DIFFERENT FILL-ORIGIN LEVEL: 0
L1I AVERAGE MISS LATENCY: -nan cycles
L1I RQ	ACCESS:   73769242	FORWARD:          0	MERGED:   29645614	TO_CACHE:   44123628

BTB TOTAL     ACCESS:   45779360  HIT:   45779360  MISS:          0  HIT %:        100  MISS %:          0   MPKI: 0
BTB BRANCH_DIRECT_JUMP	ACCESS:          0  HIT:          0  MISS:          0
BTB BRANCH_INDIRECT	ACCESS:          0  HIT:          0  MISS:          0
BTB BRANCH_CONDITIONAL	ACCESS:   45779360  HIT:   45779360  MISS:          0
BTB BRANCH_DIRECT_CALL	ACCESS:          0  HIT:          0  MISS:          0
BTB BRANCH_INDIRECT_CALL	ACCESS:          0  HIT:          0  MISS:          0
BTB BRANCH_RETURN	ACCESS:          0  HIT:          0  MISS:          0
BTB BRANCH_OTHER ACCESS:          0  HIT:          0  MISS:          0

L2C TOTAL     ACCESS:    3253897  HIT:    2491434  MISS:     762463  HIT %:    76.5677  MISS %:    23.4323   MPKI: 3.81231
L2C LOAD      ACCESS:       2670  HIT:          0  MISS:       2670  HIT %:          0  MISS %:        100   MPKI: 0.01335
L2C DATA LOAD MPKI: 0.01335
L2C INSTRUCTION LOAD MPKI: 0
L2C RFO       ACCESS:     357650  HIT:          0  MISS:     357650  HIT %:          0  MISS %:        100   MPKI: 1.78825
L2C PREFETCH  ACCESS:    1177714  HIT:     820157  MISS:     357557  HIT %:    69.6397  MISS %:    30.3603   MPKI: 1.78778
L2C DATA PREFETCH MPKI: 1.78778
L2C INSTRUCTION PREFETCH MPKI: 0
L2C WRITEBACK ACCESS:     357650  HIT:     314489  MISS:      43161  HIT %:    87.9321  MISS %:    12.0679   MPKI: 0.215805
L2C LOAD TRANSLATION ACCESS:      10988  HIT:      10273  MISS:        715  HIT %:    93.4929  MISS %:     6.5071   MPKI: 0.003575
L2C TRANSLATION FROM L1D PREFETCHER ACCESS:    1347225  HIT:    1346515  MISS:        710  HIT %:    99.9473  MISS %:  0.0527009   MPKI: 0.00355
L2C PREFETCH  REQUESTED:          0  ISSUED:          0  USEFUL:        940  USELESS:     494152
L2C USEFUL LOAD PREFETCHES:        940 PREFETCH ISSUED TO LOWER LEVEL:     494488  ACCURACY: 0.190096
L2C TIMELY PREFETCHES:        940 LATE PREFETCHES: 0 DROPPED PREFETCHES: 0
L2C PREFETCHES SAME FILL-ORIGIN LEVEL: 174194 DIFFERENT FILL-ORIGIN LEVEL: 0
L2C AVERAGE MISS LATENCY: 652.877 cycles
L2C RQ	ACCESS:    1840170	FORWARD:          0	MERGED:          0	TO_CACHE:    1840170
L2C WQ	ACCESS:     475598	FORWARD:          0	MERGED:          0	TO_CACHE:     475598
L2C PQ	ACCESS:    2565934	FORWARD:          0	MERGED:        369	TO_CACHE:    2565565

L2C Instructions Evicting Data 0
L2C Translations Evicting Data 1887
L2C Data Evicting Data 970967
L2C Instructions Evicting Instructions 0
L2C Translations Evicting Instructions 0
L2C Data Evicting Instructions 0
L2C Instructions Evicting Translations 0
L2C Translations Evicting Translations 0
L2C Data Evicting Translations 1785
L2C Dense regions hint from L2: 0
PSCL5 TOTAL     ACCESS:    1358213  HIT:    1358213  MISS:          0  HIT %:        100  MISS %:          0   MPKI: 0
PSCL5 LOAD TRANSLATION ACCESS:      10988  HIT:      10988  MISS:          0  HIT %:        100  MISS %:          0   MPKI: 0
PSCL5 TRANSLATION FROM L1D PREFETCHER ACCESS:    1347225  HIT:    1347225  MISS:          0  HIT %:        100  MISS %:          0   MPKI: 0
PSCL5 PREFETCH  REQUESTED:          0  ISSUED:          0  USEFUL:          0  USELESS:          0
PSCL5 USEFUL LOAD PREFETCHES:          0 PREFETCH ISSUED TO LOWER LEVEL:          0  ACCURACY: -nan
PSCL5 TIMELY PREFETCHES:          0 LATE PREFETCHES: 0 DROPPED PREFETCHES: 0
PSCL5 PREFETCHES SAME FILL-ORIGIN LEVEL: 0 DIFFERENT FILL-ORIGIN LEVEL: 0

PSCL4 TOTAL     ACCESS:    1358213  HIT:    1358213  MISS:          0  HIT %:        100  MISS %:          0   MPKI: 0
PSCL4 LOAD TRANSLATION ACCESS:      10988  HIT:      10988  MISS:          0  HIT %:        100  MISS %:          0   MPKI: 0
PSCL4 TRANSLATION FROM L1D PREFETCHER ACCESS:    1347225  HIT:    1347225  MISS:          0  HIT %:        100  MISS %:          0   MPKI: 0
PSCL4 PREFETCH  REQUESTED:          0  ISSUED:          0  USEFUL:          0  USELESS:          0
PSCL4 USEFUL LOAD PREFETCHES:          0 PREFETCH ISSUED TO LOWER LEVEL:          0  ACCURACY: -nan
PSCL4 TIMELY PREFETCHES:          0 LATE PREFETCHES: 0 DROPPED PREFETCHES: 0
PSCL4 PREFETCHES SAME FILL-ORIGIN LEVEL: 0 DIFFERENT FILL-ORIGIN LEVEL: 0

PSCL3 TOTAL     ACCESS:    1358213  HIT:    1358213  MISS:          0  HIT %:        100  MISS %:          0   MPKI: 0
PSCL3 LOAD TRANSLATION ACCESS:      10988  HIT:      10988  MISS:          0  HIT %:        100  MISS %:          0   MPKI: 0
PSCL3 TRANSLATION FROM L1D PREFETCHER ACCESS:    1347225  HIT:    1347225  MISS:          0  HIT %:        100  MISS %:          0   MPKI: 0
PSCL3 PREFETCH  REQUESTED:          0  ISSUED:          0  USEFUL:          0  USELESS:          0
PSCL3 USEFUL LOAD PREFETCHES:          0 PREFETCH ISSUED TO LOWER LEVEL:          0  ACCURACY: -nan
PSCL3 TIMELY PREFETCHES:          0 LATE PREFETCHES: 0 DROPPED PREFETCHES: 0
PSCL3 PREFETCHES SAME FILL-ORIGIN LEVEL: 0 DIFFERENT FILL-ORIGIN LEVEL: 0

PSCL2 TOTAL     ACCESS:    1347964  HIT:    1347943  MISS:         21  HIT %:    99.9984  MISS %: 0.00155791   MPKI: 0.000105
PSCL2 LOAD TRANSLATION ACCESS:      10988  HIT:      10967  MISS:         21  HIT %:    99.8089  MISS %:   0.191118   MPKI: 0.000105
PSCL2 TRANSLATION FROM L1D PREFETCHER ACCESS:    1336976  HIT:    1336976  MISS:          0  HIT %:        100  MISS %:          0   MPKI: 0
PSCL2 PREFETCH  REQUESTED:          0  ISSUED:          0  USEFUL:          0  USELESS:          0
PSCL2 USEFUL LOAD PREFETCHES:          0 PREFETCH ISSUED TO LOWER LEVEL:          0  ACCURACY: -nan
PSCL2 TIMELY PREFETCHES:          0 LATE PREFETCHES: 0 DROPPED PREFETCHES: 0
PSCL2 PREFETCHES SAME FILL-ORIGIN LEVEL: 0 DIFFERENT FILL-ORIGIN LEVEL: 0

LLC TOTAL     ACCESS:    1076990  HIT:     338089  MISS:     738901  HIT %:     31.392  MISS %:     68.608   MPKI: 3.6945
LLC LOAD      ACCESS:       2670  HIT:          0  MISS:       2670  HIT %:          0  MISS %:        100   MPKI: 0.01335
LLC RFO       ACCESS:     357650  HIT:          0  MISS:     357650  HIT %:          0  MISS %:        100   MPKI: 1.78825
LLC PREFETCH  ACCESS:     357557  HIT:       2035  MISS:     355522  HIT %:    0.56914  MISS %:    99.4309   MPKI: 1.77761
LLC WRITEBACK ACCESS:     357688  HIT:     336049  MISS:      21639  HIT %:    93.9503  MISS %:    6.04969   MPKI: 0.108195
LLC LOAD TRANSLATION ACCESS:        715  HIT:          4  MISS:        711  HIT %:   0.559441  MISS %:    99.4406   MPKI: 0.003555
LLC TRANSLATION FROM L1D PREFETCHER ACCESS:        710  HIT:          1  MISS:        709  HIT %:   0.140845  MISS %:    99.8592   MPKI: 0.003545
LLC PREFETCH  REQUESTED:          0  ISSUED:          0  USEFUL:        269  USELESS:    4609600
LLC USEFUL LOAD PREFETCHES:        269 PREFETCH ISSUED TO LOWER LEVEL:    4615654  ACCURACY: 0.00582799
LLC TIMELY PREFETCHES:        269 LATE PREFETCHES: 0 DROPPED PREFETCHES: 0
LLC PREFETCHES SAME FILL-ORIGIN LEVEL: 0 DIFFERENT FILL-ORIGIN LEVEL: 0
LLC AVERAGE MISS LATENCY: 4658.52 cycles
LLC RQ	ACCESS:    2284515	FORWARD:          0	MERGED:          0	TO_CACHE:    2284515
LLC WQ	ACCESS:    2478690	FORWARD:          0	MERGED:          0	TO_CACHE:    2478690
LLC PQ	ACCESS:    4641431	FORWARD:          0	MERGED:          0	TO_CACHE:    4641431

LLC Dense regions hint to LLC: 0

RAW hits: 0
Loads Generated: 42775813
Loads sent to L1D: 42775812
Stores Generated: 22889677
Stores sent to L1D: 22889676
Major fault: 0 Minor fault: 14009
Allocated PAGES: 153445

CPU 3 cumulative IPC: 0.856995 instructions: 200000001 cycles: 233373722
ITLB TOTAL     ACCESS:   36774512  HIT:   36774512  MISS:          0  HIT %:        100  MISS %:          0   MPKI: 0
ITLB LOAD TRANSLATION ACCESS:   36774512  HIT:   36774512  MISS:          0  HIT %:        100  MISS %:          0   MPKI: 0
ITLB PREFETCH  REQUESTED:          0  ISSUED:          0  USEFUL:          0  USELESS:          0
ITLB USEFUL LOAD PREFETCHES:          0 PREFETCH ISSUED TO LOWER LEVEL:          0  ACCURACY: -nan
ITLB TIMELY PREFETCHES:          0 LATE PREFETCHES: 0 DROPPED PREFETCHES: 0
ITLB PREFETCHES SAME FILL-ORIGIN LEVEL: 0 DIFFERENT FILL-ORIGIN LEVEL: 0
ITLB AVERAGE MISS LATENCY: -nan cycles
ITLB RQ	ACCESS:   39293113	FORWARD:          0	MERGED:    2518601	TO_CACHE:   36774512

DTLB TOTAL     ACCESS:   25927436  HIT:   25923398  MISS:       4038  HIT %:    99.9844  MISS %:  0.0155742   MPKI: 0.02019
DTLB LOAD TRANSLATION ACCESS:   25927436  HIT:   25923398  MISS:       4038  HIT %:    99.9844  MISS %:  0.0155742   MPKI: 0.02019
DTLB PREFETCH  REQUESTED:          0  ISSUED:          0  USEFUL:          0  USELESS:          0
DTLB USEFUL LOAD PREFETCHES:          0 PREFETCH ISSUED TO LOWER LEVEL:          0  ACCURACY: -nan
DTLB TIMELY PREFETCHES:          0 LATE PREFETCHES: 0 DROPPED PREFETCHES: 0
DTLB PREFETCHES SAME FILL-ORIGIN LEVEL: 0 DIFFERENT FILL-ORIGIN LEVEL: 0
DTLB AVERAGE MISS LATENCY: 131.458 cycles
DTLB RQ	ACCESS:   29220660	FORWARD:          0	MERGED:    3293031	TO_CACHE:   25927629

STLB TOTAL     ACCESS:    4163714  HIT:    4159675  MISS:       4039  HIT %:     99.903  MISS %:  0.0970047   MPKI: 0.020195
STLB LOAD TRANSLATION ACCESS:       4038  HIT:        184  MISS:       3854  HIT %:    4.55671  MISS %:    95.4433   MPKI: 0.01927
STLB TRANSLATION FROM L1D PREFETCHER ACCESS:    4159676  HIT:    4159491  MISS:        185  HIT %:    99.9956  MISS %: 0.00444746   MPKI: 0.000925
STLB PREFETCH  REQUESTED:          0  ISSUED:          0  USEFUL:        185  USELESS:          0
STLB USEFUL LOAD PREFETCHES:        185 PREFETCH ISSUED TO LOWER LEVEL:          0  ACCURACY: inf
STLB TIMELY PREFETCHES:        185 LATE PREFETCHES: 306 DROPPED PREFETCHES: 423325
STLB PREFETCHES SAME FILL-ORIGIN LEVEL: 0 DIFFERENT FILL-ORIGIN LEVEL: 0
STLB AVERAGE MISS LATENCY: 130.073 cycles
STLB RQ	ACCESS:   24756573	FORWARD:          0	MERGED:   20166763	TO_CACHE:    4589810

STLB Hit, L1D data hit: 0
STLB Hit, L2C data hit: 0
STLB Hit, LLC data hit: 0
STLB Hit, LLC data miss: 0
STLB STLB hints to L2: 0
L1D TOTAL     ACCESS:   48526659  HIT:   48268374  MISS:     258285  HIT %:    99.4677  MISS %:   0.532254   MPKI: 1.29142
L1D LOAD      ACCESS:   19131824  HIT:   19128772  MISS:       3052  HIT %:     99.984  MISS %:  0.0159525   MPKI: 0.01526
L1D RFO       ACCESS:    9999877  HIT:    9947341  MISS:      52536  HIT %:    99.4746  MISS %:   0.525366   MPKI: 0.26268
L1D PREFETCH  ACCESS:   19394958  HIT:   19192261  MISS:     202697  HIT %:    98.9549  MISS %:     1.0451   MPKI: 1.01348
L1D PREFETCH  REQUESTED:   52952118  ISSUED:   52943934  USEFUL:     202693  USELESS:          9
L1D USEFUL LOAD PREFETCHES:     202693 PREFETCH ISSUED TO LOWER LEVEL:    3856322  ACCURACY: 5.25612
L1D TIMELY PREFETCHES:     202693 LATE PREFETCHES: 399 DROPPED PREFETCHES: 1387433
L1D PREFETCHES SAME FILL-ORIGIN LEVEL: 203096 DIFFERENT FILL-ORIGIN LEVEL: 3653226
L1D AVERAGE MISS LATENCY: 362.359 cycles
L1D RQ	ACCESS:   25355683	FORWARD:          0	MERGED:    6207813	TO_CACHE:   19133914
L1D WQ	ACCESS:   10086746	FORWARD:      13956	MERGED:          0	TO_CACHE:   10086746
L1D PQ	ACCESS:   28191399	FORWARD:          0	MERGED:    3438864	TO_CACHE:   24752535

L1D UNIQUE REGIONS ACCESSED: 0
L1D REGIONS CONFLICTS: 0
L1D Cross Page Prefetch Requests: 2841376
L1D Same Page Prefetch Requests: 38819974
L1D ROI Sum of L1D PQ occupancy: 336889708
L1D PREFETCHES PUSHED FROM L2C: 0
L1I TOTAL     ACCESS:   39293113  HIT:   39293113  MISS:          0  HIT %:        100  MISS %:          0   MPKI: 0
L1I LOAD      ACCESS:   39293113  HIT:   39293113  MISS:          0  HIT %:        100  MISS %:          0   MPKI: 0
L1I PREFETCH  REQUESTED:          0  ISSUED:          0  USEFUL:          0  USELESS:          0
L1I USEFUL LOAD PREFETCHES:          0 PREFETCH ISSUED TO LOWER LEVEL:          0  ACCURACY: -nan
L1I TIMELY PREFETCHES:          0 LATE PREFETCHES: 0 DROPPED PREFETCHES: 0
L1I PREFETCHES SAME FILL-ORIGIN LEVEL: 0 DIFFERENT FILL-ORIGIN LEVEL: 0
L1I AVERAGE MISS LATENCY: -nan cycles
L1I RQ	ACCESS:   55068084	FORWARD:          0	MERGED:   15774971	TO_CACHE:   39293113

BTB TOTAL     ACCESS:   33743440  HIT:   33743440  MISS:          0  HIT %:        100  MISS %:          0   MPKI: 0
BTB BRANCH_DIRECT_JUMP	ACCESS:    8124241  HIT:    8124241  MISS:          0
BTB BRANCH_INDIRECT	ACCESS:          0  HIT:          0  MISS:          0
BTB BRANCH_CONDITIONAL	ACCESS:   23938073  HIT:   23938073  MISS:          0
BTB BRANCH_DIRECT_CALL	ACCESS:     840563  HIT:     840563  MISS:          0
BTB BRANCH_INDIRECT_CALL	ACCESS:          0  HIT:          0  MISS:          0
BTB BRANCH_RETURN	ACCESS:     840563  HIT:     840563  MISS:          0
BTB BRANCH_OTHER ACCESS:          0  HIT:          0  MISS:          0

L2C TOTAL     ACCESS:    4012277  HIT:    3749247  MISS:     263030  HIT %:    93.4444  MISS %:    6.55563   MPKI: 1.31515
L2C LOAD      ACCESS:       2653  HIT:         19  MISS:       2634  HIT %:    0.71617  MISS %:    99.2838   MPKI: 0.01317
L2C DATA LOAD MPKI: 0.01317
L2C INSTRUCTION LOAD MPKI: 0
L2C RFO       ACCESS:      52536  HIT:          0  MISS:      52536  HIT %:          0  MISS %:        100   MPKI: 0.26268
L2C PREFETCH  ACCESS:    3476879  HIT:    3273759  MISS:     203120  HIT %:     94.158  MISS %:    5.84202   MPKI: 1.0156
L2C DATA PREFETCH MPKI: 1.0156
L2C INSTRUCTION PREFETCH MPKI: 0
L2C WRITEBACK ACCESS:      52539  HIT:      48331  MISS:       4208  HIT %:    91.9907  MISS %:    8.00929   MPKI: 0.02104
L2C LOAD TRANSLATION ACCESS:       3854  HIT:       3734  MISS:        120  HIT %:    96.8864  MISS %:    3.11365   MPKI: 0.0006
L2C TRANSLATION FROM L1D PREFETCHER ACCESS:     423816  HIT:     423404  MISS:        412  HIT %:    99.9028  MISS %:   0.097212   MPKI: 0.00206
L2C PREFETCH  REQUESTED:          0  ISSUED:          0  USEFUL:        430  USELESS:     203101
L2C USEFUL LOAD PREFETCHES:        430 PREFETCH ISSUED TO LOWER LEVEL:     203302  ACCURACY: 0.211508
L2C TIMELY PREFETCHES:        430 LATE PREFETCHES: 182 DROPPED PREFETCHES: 0
L2C PREFETCHES SAME FILL-ORIGIN LEVEL: 100936 DIFFERENT FILL-ORIGIN LEVEL: 0
L2C AVERAGE MISS LATENCY: 559.568 cycles
L2C RQ	ACCESS:     482859	FORWARD:          0	MERGED:          0	TO_CACHE:     482859
L2C WQ	ACCESS:      52539	FORWARD:          0	MERGED:          0	TO_CACHE:      52539
L2C PQ	ACCESS:    3856322	FORWARD:          0	MERGED:        456	TO_CACHE:    3855866

L2C Instructions Evicting Data 0
L2C Translations Evicting Data 532
L2C Data Evicting Data 257763
L2C Instructions Evicting Instructions 0
L2C Translations Evicting Instructions 0
L2C Data Evicting Instructions 0
L2C Instructions Evicting Translations 0
L2C Translations Evicting Translations 0
L2C Data Evicting Translations 525
L2C Dense regions hint from L2: 0
PSCL5 TOTAL     ACCESS:     427670  HIT:     427670  MISS:          0  HIT %:        100  MISS %:          0   MPKI: 0
PSCL5 LOAD TRANSLATION ACCESS:       3854  HIT:       3854  MISS:          0  HIT %:        100  MISS %:          0   MPKI: 0
PSCL5 TRANSLATION FROM L1D PREFETCHER ACCESS:     423816  HIT:     423816  MISS:          0  HIT %:        100  MISS %:          0   MPKI: 0
PSCL5 PREFETCH  REQUESTED:          0  ISSUED:          0  USEFUL:          0  USELESS:          0
PSCL5 USEFUL LOAD PREFETCHES:          0 PREFETCH ISSUED TO LOWER LEVEL:          0  ACCURACY: -nan
PSCL5 TIMELY PREFETCHES:          0 LATE PREFETCHES: 0 DROPPED PREFETCHES: 0
PSCL5 PREFETCHES SAME FILL-ORIGIN LEVEL: 0 DIFFERENT FILL-ORIGIN LEVEL: 0

PSCL4 TOTAL     ACCESS:     427670  HIT:     427670  MISS:          0  HIT %:        100  MISS %:          0   MPKI: 0
PSCL4 LOAD TRANSLATION ACCESS:       3854  HIT:       3854  MISS:          0  HIT %:        100  MISS %:          0   MPKI: 0
PSCL4 TRANSLATION FROM L1D PREFETCHER ACCESS:     423816  HIT:     423816  MISS:          0  HIT %:        100  MISS %:          0   MPKI: 0
PSCL4 PREFETCH  REQUESTED:          0  ISSUED:          0  USEFUL:          0  USELESS:          0
PSCL4 USEFUL LOAD PREFETCHES:          0 PREFETCH ISSUED TO LOWER LEVEL:          0  ACCURACY: -nan
PSCL4 TIMELY PREFETCHES:          0 LATE PREFETCHES: 0 DROPPED PREFETCHES: 0
PSCL4 PREFETCHES SAME FILL-ORIGIN LEVEL: 0 DIFFERENT FILL-ORIGIN LEVEL: 0

PSCL3 TOTAL     ACCESS:     427670  HIT:     427670  MISS:          0  HIT %:        100  MISS %:          0   MPKI: 0
PSCL3 LOAD TRANSLATION ACCESS:       3854  HIT:       3854  MISS:          0  HIT %:        100  MISS %:          0   MPKI: 0
PSCL3 TRANSLATION FROM L1D PREFETCHER ACCESS:     423816  HIT:     423816  MISS:          0  HIT %:        100  MISS %:          0   MPKI: 0
PSCL3 PREFETCH  REQUESTED:          0  ISSUED:          0  USEFUL:          0  USELESS:          0
PSCL3 USEFUL LOAD PREFETCHES:          0 PREFETCH ISSUED TO LOWER LEVEL:          0  ACCURACY: -nan
PSCL3 TIMELY PREFETCHES:          0 LATE PREFETCHES: 0 DROPPED PREFETCHES: 0
PSCL3 PREFETCHES SAME FILL-ORIGIN LEVEL: 0 DIFFERENT FILL-ORIGIN LEVEL: 0

PSCL2 TOTAL     ACCESS:     426853  HIT:     426846  MISS:          7  HIT %:    99.9984  MISS %: 0.00163991   MPKI: 3.5e-05
PSCL2 LOAD TRANSLATION ACCESS:       3854  HIT:       3847  MISS:          7  HIT %:    99.8184  MISS %:   0.181629   MPKI: 3.5e-05
PSCL2 TRANSLATION FROM L1D PREFETCHER ACCESS:     422999  HIT:     422999  MISS:          0  HIT %:        100  MISS %:          0   MPKI: 0
PSCL2 PREFETCH  REQUESTED:          0  ISSUED:          0  USEFUL:          0  USELESS:          0
PSCL2 USEFUL LOAD PREFETCHES:          0 PREFETCH ISSUED TO LOWER LEVEL:          0  ACCURACY: -nan
PSCL2 TIMELY PREFETCHES:          0 LATE PREFETCHES: 0 DROPPED PREFETCHES: 0
PSCL2 PREFETCHES SAME FILL-ORIGIN LEVEL: 0 DIFFERENT FILL-ORIGIN LEVEL: 0

LLC TOTAL     ACCESS:     311271  HIT:      28377  MISS:     282894  HIT %:    9.11649  MISS %:    90.8835   MPKI: 1.41447
LLC LOAD      ACCESS:       2452  HIT:          0  MISS:       2452  HIT %:          0  MISS %:        100   MPKI: 0.01226
LLC RFO       ACCESS:      52536  HIT:          0  MISS:      52536  HIT %:          0  MISS %:        100   MPKI: 0.26268
LLC PREFETCH  ACCESS:     203302  HIT:          0  MISS:     203302  HIT %:          0  MISS %:        100   MPKI: 1.01651
LLC WRITEBACK ACCESS:      52449  HIT:      28360  MISS:      24089  HIT %:    54.0716  MISS %:    45.9284   MPKI: 0.120445
LLC LOAD TRANSLATION ACCESS:        120  HIT:         13  MISS:        107  HIT %:    10.8333  MISS %:    89.1667   MPKI: 0.000535
LLC TRANSLATION FROM L1D PREFETCHER ACCESS:        412  HIT:          4  MISS:        408  HIT %:   0.970874  MISS %:    99.0291   MPKI: 0.00204
LLC PREFETCH  REQUESTED:          0  ISSUED:          0  USEFUL:        269  USELESS:    4609600
LLC USEFUL LOAD PREFETCHES:        269 PREFETCH ISSUED TO LOWER LEVEL:    4615654  ACCURACY: 0.00582799
LLC TIMELY PREFETCHES:        269 LATE PREFETCHES: 0 DROPPED PREFETCHES: 0
LLC PREFETCHES SAME FILL-ORIGIN LEVEL: 0 DIFFERENT FILL-ORIGIN LEVEL: 0
LLC AVERAGE MISS LATENCY: 12167.7 cycles
LLC RQ	ACCESS:    2284515	FORWARD:          0	MERGED:          0	TO_CACHE:    2284515
LLC WQ	ACCESS:    2478690	FORWARD:          0	MERGED:          0	TO_CACHE:    2478690
LLC PQ	ACCESS:    4641431	FORWARD:          0	MERGED:          0	TO_CACHE:    4641431

LLC Dense regions hint to LLC: 0

RAW hits: 2660671
Loads Generated: 28016354
Loads sent to L1D: 25355683
Stores Generated: 10086746
Stores sent to L1D: 10086746
Major fault: 0 Minor fault: 5083
Allocated PAGES: 153445

DRAM Statistics
 CHANNEL 0
 RQ ROW_BUFFER_HIT:    2147258  ROW_BUFFER_MISS:    4750974
 DBUS_CONGESTED:         27
 WQ ROW_BUFFER_HIT:     217166  ROW_BUFFER_MISS:    2296376  FULL:        232

 AVG_CONGESTED_CYCLE: 6
 All warmup complete: 5
Channel 0 Bank busy for read cycles: 0
Channel 0 Bank busy for write cycles: 0
Channel 0
Rank 0
0banks busy for read cycles: 39926
0banks busy for write cycles: 0
1banks busy for read cycles: 4132032
1banks busy for write cycles: 274692
2banks busy for read cycles: 9131537
2banks busy for write cycles: 307979
3banks busy for read cycles: 14158752
3banks busy for write cycles: 2222863
4banks busy for read cycles: 21833653
4banks busy for write cycles: 2803026
5banks busy for read cycles: 29304919
5banks busy for write cycles: 3167508
6banks busy for read cycles: 31992868
6banks busy for write cycles: 3474823
7banks busy for read cycles: 28323088
7banks busy for write cycles: 8146308
8banks busy for read cycles: 25296522
8banks busy for write cycles: 48763226

CPU 0 Branch Prediction Accuracy: 99.9991% MPKI: 0.000311692 Average ROB Occupancy at Mispredict: 64.125
Branch types
NOT_BRANCH: 208265739 96.4274%
BRANCH_DIRECT_JUMP: 3 1.389e-06%
BRANCH_INDIRECT: 0 0%
BRANCH_CONDITIONAL: 6540530 3.02828%
BRANCH_DIRECT_CALL: 587849 0.272175%
BRANCH_INDIRECT_CALL: 0 0%
BRANCH_RETURN: 587849 0.272175%
BRANCH_OTHER: 0 0%


CPU 1 Branch Prediction Accuracy: 99.6769% MPKI: 1.22088 Average ROB Occupancy at Mispredict: 60.2313
Branch types
NOT_BRANCH: 160194351 62.2125%
BRANCH_DIRECT_JUMP: 0 0%
BRANCH_INDIRECT: 0 0%
BRANCH_CONDITIONAL: 97300920 37.7874%
BRANCH_DIRECT_CALL: 0 0%
BRANCH_INDIRECT_CALL: 0 0%
BRANCH_RETURN: 0 0%
BRANCH_OTHER: 0 0%


CPU 2 Branch Prediction Accuracy: 99.4311% MPKI: 1.26973 Average ROB Occupancy at Mispredict: 32.9491
Branch types
NOT_BRANCH: 205050305 77.1077%
BRANCH_DIRECT_JUMP: 0 0%
BRANCH_INDIRECT: 0 0%
BRANCH_CONDITIONAL: 60876795 22.8923%
BRANCH_DIRECT_CALL: 0 0%
BRANCH_INDIRECT_CALL: 0 0%
BRANCH_RETURN: 0 0%
BRANCH_OTHER: 0 0%


CPU 3 Branch Prediction Accuracy: 97.8323% MPKI: 6.21636 Average ROB Occupancy at Mispredict: 86.8059
Branch types
NOT_BRANCH: 139362182 69.6811%
BRANCH_DIRECT_JUMP: 8124241 4.06212%
BRANCH_INDIRECT: 0 0%
BRANCH_CONDITIONAL: 50832487 25.4162%
BRANCH_DIRECT_CALL: 840563 0.420281%
BRANCH_INDIRECT_CALL: 0 0%
BRANCH_RETURN: 840563 0.420281%
BRANCH_OTHER: 0 0%

DRAM PAGES: 1048576
Allocated PAGES: 153445
