
*** ChampSim Multicore Out-of-Order Simulator ***

Warmup Instructions: 50000000
Simulation Instructions: 200000000
Number of CPUs: 4
LLC sets: 8192
LLC ways: 16
Off-chip DRAM Size: 4096 MB Channels: 1 Width: 64-bit Data Rate: 6400 MT/s
CPU 0 runs ./traces/ligra/ligra_BFSCC.com-lj.ungraph.gcc_6.3.0_O3.drop_18750M.length_250M.champsimtrace.xz
.xz
CPU 1 runs ./traces/ligra/ligra_BFSCC.com-lj.ungraph.gcc_6.3.0_O3.drop_18750M.length_250M.champsimtrace.xz
.xz
CPU 2 runs ./traces/ligra/ligra_BFSCC.com-lj.ungraph.gcc_6.3.0_O3.drop_18750M.length_250M.champsimtrace.xz
.xz
CPU 3 runs ./traces/ligra/ligra_BFSCC.com-lj.ungraph.gcc_6.3.0_O3.drop_18750M.length_250M.champsimtrace.xz
.xz
BTB has LRU replacement policy
ITLB has LRU replacement policy
DTLB has LRU replacement policy
STLB has LRU replacement policy
L1I has LRU replacement policy
History Sets: 8
History Ways: 16
BERTI Size: 16
BERTI Stride Size: 8
L1D has LRU replacement policy
Initialize SRRIP state for L2C
Initialize DRRIP state for LLC
BTB has LRU replacement policy
ITLB has LRU replacement policy
DTLB has LRU replacement policy
STLB has LRU replacement policy
L1I has LRU replacement policy
History Sets: 8
History Ways: 16
BERTI Size: 16
BERTI Stride Size: 8
L1D has LRU replacement policy
Initialize SRRIP state for L2C
Initialize DRRIP state for LLC
BTB has LRU replacement policy
ITLB has LRU replacement policy
DTLB has LRU replacement policy
STLB has LRU replacement policy
L1I has LRU replacement policy
History Sets: 8
History Ways: 16
BERTI Size: 16
BERTI Stride Size: 8
L1D has LRU replacement policy
Initialize SRRIP state for L2C
Initialize DRRIP state for LLC
BTB has LRU replacement policy
ITLB has LRU replacement policy
DTLB has LRU replacement policy
STLB has LRU replacement policy
L1I has LRU replacement policy
History Sets: 8
History Ways: 16
BERTI Size: 16
BERTI Stride Size: 8
L1D has LRU replacement policy
Initialize SRRIP state for L2C
Initialize DRRIP state for LLC
Heartbeat CPU 0 instructions: 10000002 cycles: 2549264 heartbeat IPC: 3.9227 cumulative IPC: 3.9227 (Simulation time: 0 hr 3 min 9 sec) 
Heartbeat CPU 1 instructions: 10000002 cycles: 2549325 heartbeat IPC: 3.92261 cumulative IPC: 3.92261 (Simulation time: 0 hr 3 min 9 sec) 
Heartbeat CPU 2 instructions: 10000002 cycles: 2549386 heartbeat IPC: 3.92251 cumulative IPC: 3.92251 (Simulation time: 0 hr 3 min 9 sec) 
Heartbeat CPU 3 instructions: 10000002 cycles: 2549466 heartbeat IPC: 3.92239 cumulative IPC: 3.92239 (Simulation time: 0 hr 3 min 9 sec) 
Heartbeat CPU 0 instructions: 20000003 cycles: 5098036 heartbeat IPC: 3.92346 cumulative IPC: 3.92308 (Simulation time: 0 hr 6 min 18 sec) 
Heartbeat CPU 1 instructions: 20000003 cycles: 5098093 heartbeat IPC: 3.92346 cumulative IPC: 3.92304 (Simulation time: 0 hr 6 min 18 sec) 
Heartbeat CPU 2 instructions: 20000003 cycles: 5098148 heartbeat IPC: 3.92347 cumulative IPC: 3.92299 (Simulation time: 0 hr 6 min 18 sec) 
Heartbeat CPU 3 instructions: 20000003 cycles: 5098299 heartbeat IPC: 3.92336 cumulative IPC: 3.92288 (Simulation time: 0 hr 6 min 18 sec) 
Heartbeat CPU 0 instructions: 30000001 cycles: 7646983 heartbeat IPC: 3.92319 cumulative IPC: 3.92312 (Simulation time: 0 hr 9 min 30 sec) 
Heartbeat CPU 1 instructions: 30000001 cycles: 7647067 heartbeat IPC: 3.92315 cumulative IPC: 3.92307 (Simulation time: 0 hr 9 min 30 sec) 
Heartbeat CPU 2 instructions: 30000001 cycles: 7647217 heartbeat IPC: 3.923 cumulative IPC: 3.923 (Simulation time: 0 hr 9 min 30 sec) 
Heartbeat CPU 3 instructions: 30000001 cycles: 7647361 heartbeat IPC: 3.92301 cumulative IPC: 3.92292 (Simulation time: 0 hr 9 min 30 sec) 
Heartbeat CPU 0 instructions: 40000002 cycles: 10195828 heartbeat IPC: 3.92335 cumulative IPC: 3.92317 (Simulation time: 0 hr 12 min 40 sec) 
Heartbeat CPU 1 instructions: 40000002 cycles: 10195978 heartbeat IPC: 3.92324 cumulative IPC: 3.92312 (Simulation time: 0 hr 12 min 40 sec) 
Heartbeat CPU 2 instructions: 40000002 cycles: 10196095 heartbeat IPC: 3.9233 cumulative IPC: 3.92307 (Simulation time: 0 hr 12 min 40 sec) 
Heartbeat CPU 3 instructions: 40000002 cycles: 10196328 heartbeat IPC: 3.92316 cumulative IPC: 3.92298 (Simulation time: 0 hr 12 min 40 sec) 
Heartbeat CPU 0 instructions: 50000001 cycles: 12744734 heartbeat IPC: 3.92325 cumulative IPC: 3.92319 (Simulation time: 0 hr 15 min 59 sec) 
Heartbeat CPU 1 instructions: 50000001 cycles: 12744899 heartbeat IPC: 3.92323 cumulative IPC: 3.92314 (Simulation time: 0 hr 15 min 59 sec) 
Heartbeat CPU 2 instructions: 50000001 cycles: 12745043 heartbeat IPC: 3.92319 cumulative IPC: 3.92309 (Simulation time: 0 hr 15 min 59 sec) 
Heartbeat CPU 3 instructions: 50000001 cycles: 12745287 heartbeat IPC: 3.92317 cumulative IPC: 3.92302 (Simulation time: 0 hr 15 min 59 sec) 

Warmup complete CPU 0 instructions: 50001653 cycles: 12745287 (Simulation time: 0 hr 15 min 59 sec) 
Warmup complete CPU 1 instructions: 50001184 cycles: 12745287 (Simulation time: 0 hr 15 min 59 sec) 
Warmup complete CPU 2 instructions: 50000790 cycles: 12745287 (Simulation time: 0 hr 15 min 59 sec) 
Warmup complete CPU 3 instructions: 50000001 cycles: 12745287 (Simulation time: 0 hr 15 min 59 sec) 

Heartbeat CPU 3 instructions: 60000002 cycles: 34931114 heartbeat IPC: 0.450738 cumulative IPC: 0.450738 (Simulation time: 0 hr 19 min 43 sec) 
Heartbeat CPU 0 instructions: 60000002 cycles: 34947904 heartbeat IPC: 0.450386 cumulative IPC: 0.450323 (Simulation time: 0 hr 19 min 43 sec) 
Heartbeat CPU 1 instructions: 60000001 cycles: 35003977 heartbeat IPC: 0.449255 cumulative IPC: 0.44921 (Simulation time: 0 hr 19 min 43 sec) 
Heartbeat CPU 2 instructions: 60000002 cycles: 35044238 heartbeat IPC: 0.448447 cumulative IPC: 0.448416 (Simulation time: 0 hr 19 min 44 sec) 
Heartbeat CPU 3 instructions: 70000001 cycles: 57034315 heartbeat IPC: 0.452423 cumulative IPC: 0.451579 (Simulation time: 0 hr 23 min 25 sec) 
Heartbeat CPU 1 instructions: 70000001 cycles: 57122747 heartbeat IPC: 0.452105 cumulative IPC: 0.450653 (Simulation time: 0 hr 23 min 25 sec) 
Heartbeat CPU 0 instructions: 70000001 cycles: 57179124 heartbeat IPC: 0.449818 cumulative IPC: 0.45007 (Simulation time: 0 hr 23 min 26 sec) 
Heartbeat CPU 2 instructions: 70000001 cycles: 57330113 heartbeat IPC: 0.448715 cumulative IPC: 0.448565 (Simulation time: 0 hr 23 min 28 sec) 
Heartbeat CPU 0 instructions: 80000000 cycles: 79301569 heartbeat IPC: 0.45203 cumulative IPC: 0.450722 (Simulation time: 0 hr 27 min 5 sec) 
Heartbeat CPU 3 instructions: 80000000 cycles: 79423738 heartbeat IPC: 0.446639 cumulative IPC: 0.44992 (Simulation time: 0 hr 27 min 6 sec) 
Heartbeat CPU 1 instructions: 80000000 cycles: 79553456 heartbeat IPC: 0.445817 cumulative IPC: 0.449029 (Simulation time: 0 hr 27 min 7 sec) 
Heartbeat CPU 2 instructions: 80000001 cycles: 79580592 heartbeat IPC: 0.449429 cumulative IPC: 0.448853 (Simulation time: 0 hr 27 min 8 sec) 
Heartbeat CPU 0 instructions: 90000000 cycles: 101595030 heartbeat IPC: 0.448562 cumulative IPC: 0.45018 (Simulation time: 0 hr 30 min 53 sec) 
Heartbeat CPU 3 instructions: 90000000 cycles: 101803065 heartbeat IPC: 0.446841 cumulative IPC: 0.449147 (Simulation time: 0 hr 30 min 55 sec) 
Heartbeat CPU 2 instructions: 90000000 cycles: 101938472 heartbeat IPC: 0.44727 cumulative IPC: 0.448456 (Simulation time: 0 hr 30 min 57 sec) 
Heartbeat CPU 1 instructions: 90000000 cycles: 101981424 heartbeat IPC: 0.445872 cumulative IPC: 0.448236 (Simulation time: 0 hr 30 min 57 sec) 
Heartbeat CPU 0 instructions: 100000002 cycles: 124135289 heartbeat IPC: 0.443651 cumulative IPC: 0.448858 (Simulation time: 0 hr 34 min 32 sec) 
Heartbeat CPU 3 instructions: 100000002 cycles: 124312565 heartbeat IPC: 0.444257 cumulative IPC: 0.44816 (Simulation time: 0 hr 34 min 34 sec) 
Heartbeat CPU 2 instructions: 100000002 cycles: 124319361 heartbeat IPC: 0.44681 cumulative IPC: 0.448126 (Simulation time: 0 hr 34 min 34 sec) 
Heartbeat CPU 1 instructions: 100000002 cycles: 124491779 heartbeat IPC: 0.44424 cumulative IPC: 0.447431 (Simulation time: 0 hr 34 min 35 sec) 
Heartbeat CPU 0 instructions: 110000000 cycles: 146636015 heartbeat IPC: 0.44443 cumulative IPC: 0.448114 (Simulation time: 0 hr 38 min 15 sec) 
Heartbeat CPU 3 instructions: 110000000 cycles: 146954292 heartbeat IPC: 0.441662 cumulative IPC: 0.447064 (Simulation time: 0 hr 38 min 18 sec) 
Heartbeat CPU 1 instructions: 110000000 cycles: 147070663 heartbeat IPC: 0.442892 cumulative IPC: 0.446668 (Simulation time: 0 hr 38 min 19 sec) 
Heartbeat CPU 2 instructions: 110000000 cycles: 147073250 heartbeat IPC: 0.439485 cumulative IPC: 0.446662 (Simulation time: 0 hr 38 min 19 sec) 
Heartbeat CPU 0 instructions: 120000003 cycles: 169861233 heartbeat IPC: 0.430567 cumulative IPC: 0.44552 (Simulation time: 0 hr 41 min 57 sec) 
Heartbeat CPU 3 instructions: 120000003 cycles: 170190179 heartbeat IPC: 0.430369 cumulative IPC: 0.4446 (Simulation time: 0 hr 42 min 0 sec) 
Heartbeat CPU 1 instructions: 120000003 cycles: 170308463 heartbeat IPC: 0.430333 cumulative IPC: 0.444259 (Simulation time: 0 hr 42 min 1 sec) 
Heartbeat CPU 2 instructions: 120000003 cycles: 170317929 heartbeat IPC: 0.430206 cumulative IPC: 0.444235 (Simulation time: 0 hr 42 min 2 sec) 
Heartbeat CPU 0 instructions: 130000002 cycles: 193618679 heartbeat IPC: 0.420921 cumulative IPC: 0.442289 (Simulation time: 0 hr 45 min 29 sec) 
Heartbeat CPU 1 instructions: 130000002 cycles: 194086874 heartbeat IPC: 0.42055 cumulative IPC: 0.44115 (Simulation time: 0 hr 45 min 33 sec) 
Heartbeat CPU 3 instructions: 130000002 cycles: 194151997 heartbeat IPC: 0.417331 cumulative IPC: 0.440998 (Simulation time: 0 hr 45 min 33 sec) 
Heartbeat CPU 2 instructions: 130000002 cycles: 194208590 heartbeat IPC: 0.418574 cumulative IPC: 0.440856 (Simulation time: 0 hr 45 min 34 sec) 
Heartbeat CPU 0 instructions: 140000003 cycles: 217991975 heartbeat IPC: 0.410285 cumulative IPC: 0.438489 (Simulation time: 0 hr 48 min 44 sec) 
Heartbeat CPU 1 instructions: 140000000 cycles: 218597708 heartbeat IPC: 0.407983 cumulative IPC: 0.437201 (Simulation time: 0 hr 48 min 48 sec) 
Heartbeat CPU 3 instructions: 140000003 cycles: 218647967 heartbeat IPC: 0.40823 cumulative IPC: 0.4371 (Simulation time: 0 hr 48 min 48 sec) 
Heartbeat CPU 2 instructions: 140000000 cycles: 218718501 heartbeat IPC: 0.407998 cumulative IPC: 0.436946 (Simulation time: 0 hr 48 min 49 sec) 
Heartbeat CPU 0 instructions: 150000002 cycles: 239669879 heartbeat IPC: 0.461299 cumulative IPC: 0.440668 (Simulation time: 0 hr 52 min 24 sec) 
Heartbeat CPU 1 instructions: 150000001 cycles: 239999190 heartbeat IPC: 0.467257 cumulative IPC: 0.440031 (Simulation time: 0 hr 52 min 30 sec) 
Heartbeat CPU 3 instructions: 150000002 cycles: 240056295 heartbeat IPC: 0.467108 cumulative IPC: 0.439926 (Simulation time: 0 hr 52 min 31 sec) 
Heartbeat CPU 2 instructions: 150000001 cycles: 240116883 heartbeat IPC: 0.467325 cumulative IPC: 0.439805 (Simulation time: 0 hr 52 min 33 sec) 
Heartbeat CPU 0 instructions: 160000000 cycles: 253245635 heartbeat IPC: 0.736607 cumulative IPC: 0.457373 (Simulation time: 0 hr 56 min 37 sec) 
Heartbeat CPU 1 instructions: 160000000 cycles: 253573958 heartbeat IPC: 0.736661 cumulative IPC: 0.456751 (Simulation time: 0 hr 56 min 44 sec) 
Heartbeat CPU 3 instructions: 160000000 cycles: 253602805 heartbeat IPC: 0.738197 cumulative IPC: 0.456702 (Simulation time: 0 hr 56 min 44 sec) 
Heartbeat CPU 2 instructions: 160000000 cycles: 253711633 heartbeat IPC: 0.735578 cumulative IPC: 0.456492 (Simulation time: 0 hr 56 min 47 sec) 
Heartbeat CPU 0 instructions: 170000000 cycles: 266947582 heartbeat IPC: 0.729823 cumulative IPC: 0.472058 (Simulation time: 1 hr 0 min 54 sec) 
Heartbeat CPU 3 instructions: 170000000 cycles: 267402833 heartbeat IPC: 0.724636 cumulative IPC: 0.471221 (Simulation time: 1 hr 1 min 2 sec) 
Heartbeat CPU 1 instructions: 170000000 cycles: 267584505 heartbeat IPC: 0.713748 cumulative IPC: 0.47088 (Simulation time: 1 hr 1 min 5 sec) 
Heartbeat CPU 2 instructions: 170000000 cycles: 267800009 heartbeat IPC: 0.709805 cumulative IPC: 0.470484 (Simulation time: 1 hr 1 min 8 sec) 
Heartbeat CPU 0 instructions: 180000001 cycles: 284450181 heartbeat IPC: 0.571344 cumulative IPC: 0.478454 (Simulation time: 1 hr 5 min 20 sec) 
Heartbeat CPU 3 instructions: 180000000 cycles: 284808639 heartbeat IPC: 0.574521 cumulative IPC: 0.47783 (Simulation time: 1 hr 5 min 24 sec) 
Heartbeat CPU 1 instructions: 180000000 cycles: 284947196 heartbeat IPC: 0.575948 cumulative IPC: 0.477582 (Simulation time: 1 hr 5 min 25 sec) 
Heartbeat CPU 2 instructions: 180000001 cycles: 285464751 heartbeat IPC: 0.566099 cumulative IPC: 0.476677 (Simulation time: 1 hr 5 min 34 sec) 
Heartbeat CPU 0 instructions: 190000001 cycles: 303386436 heartbeat IPC: 0.528087 cumulative IPC: 0.481688 (Simulation time: 1 hr 10 min 19 sec) 
Heartbeat CPU 3 instructions: 190000001 cycles: 304721796 heartbeat IPC: 0.502181 cumulative IPC: 0.479491 (Simulation time: 1 hr 10 min 53 sec) 
Heartbeat CPU 1 instructions: 190000001 cycles: 305177854 heartbeat IPC: 0.494299 cumulative IPC: 0.478739 (Simulation time: 1 hr 11 min 5 sec) 
Heartbeat CPU 2 instructions: 190000001 cycles: 307320125 heartbeat IPC: 0.457553 cumulative IPC: 0.475259 (Simulation time: 1 hr 11 min 46 sec) 
Heartbeat CPU 0 instructions: 200000003 cycles: 353977647 heartbeat IPC: 0.197663 cumulative IPC: 0.439578 (Simulation time: 1 hr 30 min 2 sec) 
Heartbeat CPU 3 instructions: 200000001 cycles: 355177674 heartbeat IPC: 0.198193 cumulative IPC: 0.438043 (Simulation time: 1 hr 30 min 34 sec) 
Heartbeat CPU 1 instructions: 200000001 cycles: 355634996 heartbeat IPC: 0.198188 cumulative IPC: 0.437455 (Simulation time: 1 hr 30 min 47 sec) 
Heartbeat CPU 2 instructions: 200000001 cycles: 357656658 heartbeat IPC: 0.198663 cumulative IPC: 0.434892 (Simulation time: 1 hr 31 min 37 sec) 
Heartbeat CPU 0 instructions: 210000001 cycles: 404646471 heartbeat IPC: 0.19736 cumulative IPC: 0.408262 (Simulation time: 1 hr 51 min 36 sec) 
Heartbeat CPU 3 instructions: 210000001 cycles: 406072646 heartbeat IPC: 0.196483 cumulative IPC: 0.406786 (Simulation time: 1 hr 52 min 11 sec) 
Heartbeat CPU 1 instructions: 210000003 cycles: 406410889 heartbeat IPC: 0.196944 cumulative IPC: 0.406433 (Simulation time: 1 hr 52 min 18 sec) 
Heartbeat CPU 2 instructions: 210000001 cycles: 408429833 heartbeat IPC: 0.196954 cumulative IPC: 0.404361 (Simulation time: 1 hr 53 min 6 sec) 
Heartbeat CPU 0 instructions: 220000000 cycles: 455546155 heartbeat IPC: 0.196465 cumulative IPC: 0.383916 (Simulation time: 2 hr 12 min 27 sec) 
Heartbeat CPU 3 instructions: 220000000 cycles: 457019906 heartbeat IPC: 0.196281 cumulative IPC: 0.382646 (Simulation time: 2 hr 13 min 5 sec) 
Heartbeat CPU 1 instructions: 220000000 cycles: 457152043 heartbeat IPC: 0.197079 cumulative IPC: 0.38253 (Simulation time: 2 hr 13 min 8 sec) 
Heartbeat CPU 2 instructions: 220000000 cycles: 459397596 heartbeat IPC: 0.196202 cumulative IPC: 0.380607 (Simulation time: 2 hr 13 min 55 sec) 
Heartbeat CPU 0 instructions: 230000001 cycles: 506353059 heartbeat IPC: 0.196824 cumulative IPC: 0.364659 (Simulation time: 2 hr 34 min 6 sec) 
Heartbeat CPU 3 instructions: 230000001 cycles: 507813327 heartbeat IPC: 0.196876 cumulative IPC: 0.363586 (Simulation time: 2 hr 34 min 46 sec) 
Heartbeat CPU 1 instructions: 230000001 cycles: 507970174 heartbeat IPC: 0.19678 cumulative IPC: 0.363469 (Simulation time: 2 hr 34 min 50 sec) 
Heartbeat CPU 2 instructions: 230000001 cycles: 510233686 heartbeat IPC: 0.196711 cumulative IPC: 0.361816 (Simulation time: 2 hr 35 min 50 sec) 
Heartbeat CPU 0 instructions: 240000000 cycles: 561797276 heartbeat IPC: 0.180361 cumulative IPC: 0.346048 (Simulation time: 2 hr 51 min 4 sec) 
Heartbeat CPU 3 instructions: 240000000 cycles: 562906662 heartbeat IPC: 0.18151 cumulative IPC: 0.345353 (Simulation time: 2 hr 51 min 14 sec) 
Heartbeat CPU 1 instructions: 240000000 cycles: 562993352 heartbeat IPC: 0.181742 cumulative IPC: 0.345297 (Simulation time: 2 hr 51 min 14 sec) 
Heartbeat CPU 2 instructions: 240000000 cycles: 563653878 heartbeat IPC: 0.187195 cumulative IPC: 0.344883 (Simulation time: 2 hr 51 min 20 sec) 
*** Reached end of trace for Core: 0 Repeating trace: ./traces/ligra/ligra_BFSCC.com-lj.ungraph.gcc_6.3.0_O3.drop_18750M.length_250M.champsimtrace.xz
Heartbeat CPU 0 instructions: 250000000 cycles: 632038392 heartbeat IPC: 0.142367 cumulative IPC: 0.322946 (Simulation time: 3 hr 2 min 18 sec) 
Finished CPU 0 instructions: 200000001 cycles: 619298707 cumulative IPC: 0.322946 (Simulation time: 3 hr 2 min 18 sec) 
*** Reached end of trace for Core: 3 Repeating trace: ./traces/ligra/ligra_BFSCC.com-lj.ungraph.gcc_6.3.0_O3.drop_18750M.length_250M.champsimtrace.xz
Heartbeat CPU 3 instructions: 250000000 cycles: 633148367 heartbeat IPC: 0.142366 cumulative IPC: 0.322371 (Simulation time: 3 hr 2 min 31 sec) 
Finished CPU 3 instructions: 200000003 cycles: 620403087 cumulative IPC: 0.322371 (Simulation time: 3 hr 2 min 31 sec) 
*** Reached end of trace for Core: 1 Repeating trace: ./traces/ligra/ligra_BFSCC.com-lj.ungraph.gcc_6.3.0_O3.drop_18750M.length_250M.champsimtrace.xz
Heartbeat CPU 1 instructions: 250000000 cycles: 633236410 heartbeat IPC: 0.142363 cumulative IPC: 0.322323 (Simulation time: 3 hr 2 min 32 sec) 
Finished CPU 1 instructions: 200000002 cycles: 620499987 cumulative IPC: 0.322321 (Simulation time: 3 hr 2 min 32 sec) 
*** Reached end of trace for Core: 2 Repeating trace: ./traces/ligra/ligra_BFSCC.com-lj.ungraph.gcc_6.3.0_O3.drop_18750M.length_250M.champsimtrace.xz
Heartbeat CPU 2 instructions: 250000000 cycles: 633898346 heartbeat IPC: 0.14236 cumulative IPC: 0.321981 (Simulation time: 3 hr 2 min 36 sec) 
Finished CPU 2 instructions: 200000001 cycles: 621163005 cumulative IPC: 0.321977 (Simulation time: 3 hr 2 min 36 sec) 

ChampSim completed all CPUs

Total Simulation Statistics (not including warmup)

CPU 0 cumulative IPC: 0.323205 instructions: 200762886 cycles: 621163005
ITLB TOTAL     ACCESS:   42690234  HIT:   42690214  MISS:         20  HIT %:        100  MISS %: 4.68491e-05   MPKI: 9.962e-05
ITLB LOAD      ACCESS:          0  HIT:          0  MISS:          0  HIT %:       -nan  MISS %:       -nan   MPKI: 0
ITLB RFO       ACCESS:          0  HIT:          0  MISS:          0  HIT %:       -nan  MISS %:       -nan   MPKI: 0
ITLB PREFETCH  ACCESS:          0  HIT:          0  MISS:          0  HIT %:       -nan  MISS %:       -nan   MPKI: 0
ITLB WRITEBACK ACCESS:          0  HIT:          0  MISS:          0  HIT %:       -nan  MISS %:       -nan   MPKI: 0
DTLB TOTAL     ACCESS:   41547553  HIT:   41467893  MISS:      79660  HIT %:    99.8083  MISS %:   0.191732   MPKI: 0.396786
DTLB LOAD      ACCESS:          0  HIT:          0  MISS:          0  HIT %:       -nan  MISS %:       -nan   MPKI: 0
DTLB RFO       ACCESS:          0  HIT:          0  MISS:          0  HIT %:       -nan  MISS %:       -nan   MPKI: 0
DTLB PREFETCH  ACCESS:          0  HIT:          0  MISS:          0  HIT %:       -nan  MISS %:       -nan   MPKI: 0
DTLB WRITEBACK ACCESS:          0  HIT:          0  MISS:          0  HIT %:       -nan  MISS %:       -nan   MPKI: 0
STLB TOTAL     ACCESS:    5565421  HIT:    5485743  MISS:      79678  HIT %:    98.5683  MISS %:    1.43166   MPKI: 0.396876
STLB LOAD      ACCESS:          0  HIT:          0  MISS:          0  HIT %:       -nan  MISS %:       -nan   MPKI: 0
STLB RFO       ACCESS:          0  HIT:          0  MISS:          0  HIT %:       -nan  MISS %:       -nan   MPKI: 0
STLB PREFETCH  ACCESS:          0  HIT:          0  MISS:          0  HIT %:       -nan  MISS %:       -nan   MPKI: 0
STLB WRITEBACK ACCESS:          0  HIT:          0  MISS:          0  HIT %:       -nan  MISS %:       -nan   MPKI: 0
L1D TOTAL     ACCESS:   34389359  HIT:   29293446  MISS:    5095913  HIT %:    85.1817  MISS %:    14.8183   MPKI: 25.3827
L1D LOAD      ACCESS:    9440737  HIT:    8223267  MISS:    1217470  HIT %:    87.1041  MISS %:    12.8959   MPKI: 6.06422
L1D RFO       ACCESS:   14711829  HIT:   12022517  MISS:    2689312  HIT %:    81.7201  MISS %:    18.2799   MPKI: 13.3955
L1D PREFETCH  ACCESS:   10236793  HIT:    9047662  MISS:    1189131  HIT %:    88.3838  MISS %:    11.6162   MPKI: 5.92306
L1D WRITEBACK ACCESS:          0  HIT:          0  MISS:          0  HIT %:       -nan  MISS %:       -nan   MPKI: 0
L1I TOTAL     ACCESS:   43759028  HIT:   43758861  MISS:        167  HIT %:    99.9996  MISS %: 0.000381636   MPKI: 0.000831827
L1I LOAD      ACCESS:   43759028  HIT:   43758861  MISS:        167  HIT %:    99.9996  MISS %: 0.000381636   MPKI: 0.000831827
L1I RFO       ACCESS:          0  HIT:          0  MISS:          0  HIT %:       -nan  MISS %:       -nan   MPKI: 0
L1I PREFETCH  ACCESS:          0  HIT:          0  MISS:          0  HIT %:       -nan  MISS %:       -nan   MPKI: 0
L1I WRITEBACK ACCESS:          0  HIT:          0  MISS:          0  HIT %:       -nan  MISS %:       -nan   MPKI: 0
L2C TOTAL     ACCESS:   11826363  HIT:    6321499  MISS:    5504864  HIT %:    53.4526  MISS %:    46.5474   MPKI: 27.4197
L2C LOAD      ACCESS:     985723  HIT:     635671  MISS:     350052  HIT %:    64.4878  MISS %:    35.5122   MPKI: 1.74361
L2C RFO       ACCESS:    2689312  HIT:          0  MISS:    2689312  HIT %:          0  MISS %:        100   MPKI: 13.3955
L2C PREFETCH  ACCESS:    4710884  HIT:    2656193  MISS:    2054691  HIT %:    56.3842  MISS %:    43.6158   MPKI: 10.2344
L2C WRITEBACK ACCESS:    2941889  HIT:    2541352  MISS:     400537  HIT %:     86.385  MISS %:     13.615   MPKI: 1.99507
PSCL5 TOTAL     ACCESS:     498464  HIT:     498464  MISS:          0  HIT %:        100  MISS %:          0   MPKI: 0
PSCL5 LOAD      ACCESS:          0  HIT:          0  MISS:          0  HIT %:       -nan  MISS %:       -nan   MPKI: 0
PSCL5 RFO       ACCESS:          0  HIT:          0  MISS:          0  HIT %:       -nan  MISS %:       -nan   MPKI: 0
PSCL5 PREFETCH  ACCESS:          0  HIT:          0  MISS:          0  HIT %:       -nan  MISS %:       -nan   MPKI: 0
PSCL5 WRITEBACK ACCESS:          0  HIT:          0  MISS:          0  HIT %:       -nan  MISS %:       -nan   MPKI: 0
PSCL4 TOTAL     ACCESS:     498464  HIT:     498463  MISS:          1  HIT %:    99.9998  MISS %: 0.000200616   MPKI: 4.981e-06
PSCL4 LOAD      ACCESS:          0  HIT:          0  MISS:          0  HIT %:       -nan  MISS %:       -nan   MPKI: 0
PSCL4 RFO       ACCESS:          0  HIT:          0  MISS:          0  HIT %:       -nan  MISS %:       -nan   MPKI: 0
PSCL4 PREFETCH  ACCESS:          0  HIT:          0  MISS:          0  HIT %:       -nan  MISS %:       -nan   MPKI: 0
PSCL4 WRITEBACK ACCESS:          0  HIT:          0  MISS:          0  HIT %:       -nan  MISS %:       -nan   MPKI: 0
PSCL3 TOTAL     ACCESS:     498464  HIT:     498463  MISS:          1  HIT %:    99.9998  MISS %: 0.000200616   MPKI: 4.981e-06
PSCL3 LOAD      ACCESS:          0  HIT:          0  MISS:          0  HIT %:       -nan  MISS %:       -nan   MPKI: 0
PSCL3 RFO       ACCESS:          0  HIT:          0  MISS:          0  HIT %:       -nan  MISS %:       -nan   MPKI: 0
PSCL3 PREFETCH  ACCESS:          0  HIT:          0  MISS:          0  HIT %:       -nan  MISS %:       -nan   MPKI: 0
PSCL3 WRITEBACK ACCESS:          0  HIT:          0  MISS:          0  HIT %:       -nan  MISS %:       -nan   MPKI: 0
PSCL2 TOTAL     ACCESS:     498056  HIT:     497886  MISS:        170  HIT %:    99.9659  MISS %:  0.0341327   MPKI: 0.00084677
PSCL2 LOAD      ACCESS:          0  HIT:          0  MISS:          0  HIT %:       -nan  MISS %:       -nan   MPKI: 0
PSCL2 RFO       ACCESS:          0  HIT:          0  MISS:          0  HIT %:       -nan  MISS %:       -nan   MPKI: 0
PSCL2 PREFETCH  ACCESS:          0  HIT:          0  MISS:          0  HIT %:       -nan  MISS %:       -nan   MPKI: 0
PSCL2 WRITEBACK ACCESS:          0  HIT:          0  MISS:          0  HIT %:       -nan  MISS %:       -nan   MPKI: 0
LLC TOTAL     ACCESS:    8044771  HIT:    2837300  MISS:    5207471  HIT %:    35.2689  MISS %:    64.7311   MPKI: 25.9384
LLC LOAD      ACCESS:      94184  HIT:         96  MISS:      94088  HIT %:   0.101928  MISS %:    99.8981   MPKI: 0.468652
LLC RFO       ACCESS:    2689312  HIT:          0  MISS:    2689312  HIT %:          0  MISS %:        100   MPKI: 13.3955
LLC PREFETCH  ACCESS:    2310559  HIT:        552  MISS:    2310007  HIT %:  0.0238903  MISS %:    99.9761   MPKI: 11.5061
LLC WRITEBACK ACCESS:    2940444  HIT:    2836549  MISS:     103895  HIT %:    96.4667  MISS %:    3.53331   MPKI: 0.517501

RAW hits: 7802
Loads Generated: 39491553
Loads sent to L1D: 39483751
Stores Generated: 40087847
Stores sent to L1D: 40087849

CPU 1 cumulative IPC: 0.322215 instructions: 200148145 cycles: 621163005
ITLB TOTAL     ACCESS:   42603914  HIT:   42603894  MISS:         20  HIT %:        100  MISS %: 4.6944e-05   MPKI: 9.9926e-05
ITLB LOAD      ACCESS:          0  HIT:          0  MISS:          0  HIT %:       -nan  MISS %:       -nan   MPKI: 0
ITLB RFO       ACCESS:          0  HIT:          0  MISS:          0  HIT %:       -nan  MISS %:       -nan   MPKI: 0
ITLB PREFETCH  ACCESS:          0  HIT:          0  MISS:          0  HIT %:       -nan  MISS %:       -nan   MPKI: 0
ITLB WRITEBACK ACCESS:          0  HIT:          0  MISS:          0  HIT %:       -nan  MISS %:       -nan   MPKI: 0
DTLB TOTAL     ACCESS:   41429069  HIT:   41349667  MISS:      79402  HIT %:    99.8083  MISS %:   0.191658   MPKI: 0.396716
DTLB LOAD      ACCESS:          0  HIT:          0  MISS:          0  HIT %:       -nan  MISS %:       -nan   MPKI: 0
DTLB RFO       ACCESS:          0  HIT:          0  MISS:          0  HIT %:       -nan  MISS %:       -nan   MPKI: 0
DTLB PREFETCH  ACCESS:          0  HIT:          0  MISS:          0  HIT %:       -nan  MISS %:       -nan   MPKI: 0
DTLB WRITEBACK ACCESS:          0  HIT:          0  MISS:          0  HIT %:       -nan  MISS %:       -nan   MPKI: 0
STLB TOTAL     ACCESS:    5521412  HIT:    5441992  MISS:      79420  HIT %:    98.5616  MISS %:     1.4384   MPKI: 0.396806
STLB LOAD      ACCESS:          0  HIT:          0  MISS:          0  HIT %:       -nan  MISS %:       -nan   MPKI: 0
STLB RFO       ACCESS:          0  HIT:          0  MISS:          0  HIT %:       -nan  MISS %:       -nan   MPKI: 0
STLB PREFETCH  ACCESS:          0  HIT:          0  MISS:          0  HIT %:       -nan  MISS %:       -nan   MPKI: 0
STLB WRITEBACK ACCESS:          0  HIT:          0  MISS:          0  HIT %:       -nan  MISS %:       -nan   MPKI: 0
L1D TOTAL     ACCESS:   33932257  HIT:   28852474  MISS:    5079783  HIT %:    85.0296  MISS %:    14.9704   MPKI: 25.3801
L1D LOAD      ACCESS:    9366563  HIT:    8141903  MISS:    1224660  HIT %:    86.9252  MISS %:    13.0748   MPKI: 6.11877
L1D RFO       ACCESS:   14659659  HIT:   11976125  MISS:    2683534  HIT %:    81.6944  MISS %:    18.3056   MPKI: 13.4077
L1D PREFETCH  ACCESS:    9906035  HIT:    8734446  MISS:    1171589  HIT %:     88.173  MISS %:     11.827   MPKI: 5.85361
L1D WRITEBACK ACCESS:          0  HIT:          0  MISS:          0  HIT %:       -nan  MISS %:       -nan   MPKI: 0
L1I TOTAL     ACCESS:   43669487  HIT:   43669320  MISS:        167  HIT %:    99.9996  MISS %: 0.000382418   MPKI: 0.000834382
L1I LOAD      ACCESS:   43669487  HIT:   43669320  MISS:        167  HIT %:    99.9996  MISS %: 0.000382418   MPKI: 0.000834382
L1I RFO       ACCESS:          0  HIT:          0  MISS:          0  HIT %:       -nan  MISS %:       -nan   MPKI: 0
L1I PREFETCH  ACCESS:          0  HIT:          0  MISS:          0  HIT %:       -nan  MISS %:       -nan   MPKI: 0
L1I WRITEBACK ACCESS:          0  HIT:          0  MISS:          0  HIT %:       -nan  MISS %:       -nan   MPKI: 0
L2C TOTAL     ACCESS:   11785194  HIT:    6301512  MISS:    5483682  HIT %:    53.4697  MISS %:    46.5303   MPKI: 27.3981
L2C LOAD      ACCESS:     995446  HIT:     640567  MISS:     354879  HIT %:    64.3497  MISS %:    35.6503   MPKI: 1.77308
L2C RFO       ACCESS:    2683534  HIT:          0  MISS:    2683534  HIT %:          0  MISS %:        100   MPKI: 13.4077
L2C PREFETCH  ACCESS:    4668073  HIT:    2629324  MISS:    2038749  HIT %:    56.3257  MISS %:    43.6743   MPKI: 10.1862
L2C WRITEBACK ACCESS:    2936125  HIT:    2539840  MISS:     396285  HIT %:    86.5031  MISS %:    13.4969   MPKI: 1.97996
PSCL5 TOTAL     ACCESS:     501939  HIT:     501939  MISS:          0  HIT %:        100  MISS %:          0   MPKI: 0
PSCL5 LOAD      ACCESS:          0  HIT:          0  MISS:          0  HIT %:       -nan  MISS %:       -nan   MPKI: 0
PSCL5 RFO       ACCESS:          0  HIT:          0  MISS:          0  HIT %:       -nan  MISS %:       -nan   MPKI: 0
PSCL5 PREFETCH  ACCESS:          0  HIT:          0  MISS:          0  HIT %:       -nan  MISS %:       -nan   MPKI: 0
PSCL5 WRITEBACK ACCESS:          0  HIT:          0  MISS:          0  HIT %:       -nan  MISS %:       -nan   MPKI: 0
PSCL4 TOTAL     ACCESS:     501939  HIT:     501938  MISS:          1  HIT %:    99.9998  MISS %: 0.000199227   MPKI: 4.9963e-06
PSCL4 LOAD      ACCESS:          0  HIT:          0  MISS:          0  HIT %:       -nan  MISS %:       -nan   MPKI: 0
PSCL4 RFO       ACCESS:          0  HIT:          0  MISS:          0  HIT %:       -nan  MISS %:       -nan   MPKI: 0
PSCL4 PREFETCH  ACCESS:          0  HIT:          0  MISS:          0  HIT %:       -nan  MISS %:       -nan   MPKI: 0
PSCL4 WRITEBACK ACCESS:          0  HIT:          0  MISS:          0  HIT %:       -nan  MISS %:       -nan   MPKI: 0
PSCL3 TOTAL     ACCESS:     501939  HIT:     501938  MISS:          1  HIT %:    99.9998  MISS %: 0.000199227   MPKI: 4.9963e-06
PSCL3 LOAD      ACCESS:          0  HIT:          0  MISS:          0  HIT %:       -nan  MISS %:       -nan   MPKI: 0
PSCL3 RFO       ACCESS:          0  HIT:          0  MISS:          0  HIT %:       -nan  MISS %:       -nan   MPKI: 0
PSCL3 PREFETCH  ACCESS:          0  HIT:          0  MISS:          0  HIT %:       -nan  MISS %:       -nan   MPKI: 0
PSCL3 WRITEBACK ACCESS:          0  HIT:          0  MISS:          0  HIT %:       -nan  MISS %:       -nan   MPKI: 0
PSCL2 TOTAL     ACCESS:     501652  HIT:     501483  MISS:        169  HIT %:    99.9663  MISS %:  0.0336887   MPKI: 0.000844375
PSCL2 LOAD      ACCESS:          0  HIT:          0  MISS:          0  HIT %:       -nan  MISS %:       -nan   MPKI: 0
PSCL2 RFO       ACCESS:          0  HIT:          0  MISS:          0  HIT %:       -nan  MISS %:       -nan   MPKI: 0
PSCL2 PREFETCH  ACCESS:          0  HIT:          0  MISS:          0  HIT %:       -nan  MISS %:       -nan   MPKI: 0
PSCL2 WRITEBACK ACCESS:          0  HIT:          0  MISS:          0  HIT %:       -nan  MISS %:       -nan   MPKI: 0
LLC TOTAL     ACCESS:    8021240  HIT:    2830235  MISS:    5191005  HIT %:    35.2843  MISS %:    64.7157   MPKI: 25.9358
LLC LOAD      ACCESS:      95512  HIT:         12  MISS:      95500  HIT %:  0.0125639  MISS %:    99.9874   MPKI: 0.477147
LLC RFO       ACCESS:    2683534  HIT:          0  MISS:    2683534  HIT %:          0  MISS %:        100   MPKI: 13.4077
LLC PREFETCH  ACCESS:    2298116  HIT:        295  MISS:    2297821  HIT %:  0.0128366  MISS %:    99.9872   MPKI: 11.4806
LLC WRITEBACK ACCESS:    2933843  HIT:    2829833  MISS:     104010  HIT %:    96.4548  MISS %:    3.54518   MPKI: 0.519665

RAW hits: 7806
Loads Generated: 39319606
Loads sent to L1D: 39311800
Stores Generated: 39995456
Stores sent to L1D: 39995456

CPU 2 cumulative IPC: 0.321977 instructions: 200000001 cycles: 621163005
ITLB TOTAL     ACCESS:   42582063  HIT:   42582043  MISS:         20  HIT %:        100  MISS %: 4.69681e-05   MPKI: 0.0001
ITLB LOAD      ACCESS:          0  HIT:          0  MISS:          0  HIT %:       -nan  MISS %:       -nan   MPKI: 0
ITLB RFO       ACCESS:          0  HIT:          0  MISS:          0  HIT %:       -nan  MISS %:       -nan   MPKI: 0
ITLB PREFETCH  ACCESS:          0  HIT:          0  MISS:          0  HIT %:       -nan  MISS %:       -nan   MPKI: 0
ITLB WRITEBACK ACCESS:          0  HIT:          0  MISS:          0  HIT %:       -nan  MISS %:       -nan   MPKI: 0
DTLB TOTAL     ACCESS:   41406680  HIT:   41327342  MISS:      79338  HIT %:    99.8084  MISS %:   0.191607   MPKI: 0.39669
DTLB LOAD      ACCESS:          0  HIT:          0  MISS:          0  HIT %:       -nan  MISS %:       -nan   MPKI: 0
DTLB RFO       ACCESS:          0  HIT:          0  MISS:          0  HIT %:       -nan  MISS %:       -nan   MPKI: 0
DTLB PREFETCH  ACCESS:          0  HIT:          0  MISS:          0  HIT %:       -nan  MISS %:       -nan   MPKI: 0
DTLB WRITEBACK ACCESS:          0  HIT:          0  MISS:          0  HIT %:       -nan  MISS %:       -nan   MPKI: 0
STLB TOTAL     ACCESS:    5517568  HIT:    5438212  MISS:      79356  HIT %:    98.5618  MISS %:    1.43824   MPKI: 0.39678
STLB LOAD      ACCESS:          0  HIT:          0  MISS:          0  HIT %:       -nan  MISS %:       -nan   MPKI: 0
STLB RFO       ACCESS:          0  HIT:          0  MISS:          0  HIT %:       -nan  MISS %:       -nan   MPKI: 0
STLB PREFETCH  ACCESS:          0  HIT:          0  MISS:          0  HIT %:       -nan  MISS %:       -nan   MPKI: 0
STLB WRITEBACK ACCESS:          0  HIT:          0  MISS:          0  HIT %:       -nan  MISS %:       -nan   MPKI: 0
L1D TOTAL     ACCESS:   34062371  HIT:   28986657  MISS:    5075714  HIT %:    85.0988  MISS %:    14.9012   MPKI: 25.3786
L1D LOAD      ACCESS:    9365848  HIT:    8146312  MISS:    1219536  HIT %:    86.9789  MISS %:    13.0211   MPKI: 6.09768
L1D RFO       ACCESS:   14737406  HIT:   12055237  MISS:    2682169  HIT %:    81.8003  MISS %:    18.1997   MPKI: 13.4108
L1D PREFETCH  ACCESS:    9959117  HIT:    8785108  MISS:    1174009  HIT %:    88.2117  MISS %:    11.7883   MPKI: 5.87004
L1D WRITEBACK ACCESS:          0  HIT:          0  MISS:          0  HIT %:       -nan  MISS %:       -nan   MPKI: 0
L1I TOTAL     ACCESS:   43647209  HIT:   43647042  MISS:        167  HIT %:    99.9996  MISS %: 0.000382613   MPKI: 0.000835
L1I LOAD      ACCESS:   43647209  HIT:   43647042  MISS:        167  HIT %:    99.9996  MISS %: 0.000382613   MPKI: 0.000835
L1I RFO       ACCESS:          0  HIT:          0  MISS:          0  HIT %:       -nan  MISS %:       -nan   MPKI: 0
L1I PREFETCH  ACCESS:          0  HIT:          0  MISS:          0  HIT %:       -nan  MISS %:       -nan   MPKI: 0
L1I WRITEBACK ACCESS:          0  HIT:          0  MISS:          0  HIT %:       -nan  MISS %:       -nan   MPKI: 0
L2C TOTAL     ACCESS:   11786056  HIT:    6306849  MISS:    5479207  HIT %:    53.5111  MISS %:    46.4889   MPKI: 27.396
L2C LOAD      ACCESS:     990808  HIT:     636600  MISS:     354208  HIT %:    64.2506  MISS %:    35.7494   MPKI: 1.77104
L2C RFO       ACCESS:    2682169  HIT:          0  MISS:    2682169  HIT %:          0  MISS %:        100   MPKI: 13.4108
L2C PREFETCH  ACCESS:    4676617  HIT:    2639533  MISS:    2037084  HIT %:    56.4411  MISS %:    43.5589   MPKI: 10.1854
L2C WRITEBACK ACCESS:    2934275  HIT:    2538747  MISS:     395528  HIT %:    86.5204  MISS %:    13.4796   MPKI: 1.97764
PSCL5 TOTAL     ACCESS:     502134  HIT:     502134  MISS:          0  HIT %:        100  MISS %:          0   MPKI: 0
PSCL5 LOAD      ACCESS:          0  HIT:          0  MISS:          0  HIT %:       -nan  MISS %:       -nan   MPKI: 0
PSCL5 RFO       ACCESS:          0  HIT:          0  MISS:          0  HIT %:       -nan  MISS %:       -nan   MPKI: 0
PSCL5 PREFETCH  ACCESS:          0  HIT:          0  MISS:          0  HIT %:       -nan  MISS %:       -nan   MPKI: 0
PSCL5 WRITEBACK ACCESS:          0  HIT:          0  MISS:          0  HIT %:       -nan  MISS %:       -nan   MPKI: 0
PSCL4 TOTAL     ACCESS:     502134  HIT:     502133  MISS:          1  HIT %:    99.9998  MISS %: 0.00019915   MPKI: 5e-06
PSCL4 LOAD      ACCESS:          0  HIT:          0  MISS:          0  HIT %:       -nan  MISS %:       -nan   MPKI: 0
PSCL4 RFO       ACCESS:          0  HIT:          0  MISS:          0  HIT %:       -nan  MISS %:       -nan   MPKI: 0
PSCL4 PREFETCH  ACCESS:          0  HIT:          0  MISS:          0  HIT %:       -nan  MISS %:       -nan   MPKI: 0
PSCL4 WRITEBACK ACCESS:          0  HIT:          0  MISS:          0  HIT %:       -nan  MISS %:       -nan   MPKI: 0
PSCL3 TOTAL     ACCESS:     502134  HIT:     502133  MISS:          1  HIT %:    99.9998  MISS %: 0.00019915   MPKI: 5e-06
PSCL3 LOAD      ACCESS:          0  HIT:          0  MISS:          0  HIT %:       -nan  MISS %:       -nan   MPKI: 0
PSCL3 RFO       ACCESS:          0  HIT:          0  MISS:          0  HIT %:       -nan  MISS %:       -nan   MPKI: 0
PSCL3 PREFETCH  ACCESS:          0  HIT:          0  MISS:          0  HIT %:       -nan  MISS %:       -nan   MPKI: 0
PSCL3 WRITEBACK ACCESS:          0  HIT:          0  MISS:          0  HIT %:       -nan  MISS %:       -nan   MPKI: 0
PSCL2 TOTAL     ACCESS:     501768  HIT:     501600  MISS:        168  HIT %:    99.9665  MISS %:  0.0334816   MPKI: 0.00084
PSCL2 LOAD      ACCESS:          0  HIT:          0  MISS:          0  HIT %:       -nan  MISS %:       -nan   MPKI: 0
PSCL2 RFO       ACCESS:          0  HIT:          0  MISS:          0  HIT %:       -nan  MISS %:       -nan   MPKI: 0
PSCL2 PREFETCH  ACCESS:          0  HIT:          0  MISS:          0  HIT %:       -nan  MISS %:       -nan   MPKI: 0
PSCL2 WRITEBACK ACCESS:          0  HIT:          0  MISS:          0  HIT %:       -nan  MISS %:       -nan   MPKI: 0
LLC TOTAL     ACCESS:    8014700  HIT:    2826432  MISS:    5188268  HIT %:    35.2656  MISS %:    64.7344   MPKI: 25.9413
LLC LOAD      ACCESS:      96064  HIT:          6  MISS:      96058  HIT %: 0.00624584  MISS %:    99.9938   MPKI: 0.48029
LLC RFO       ACCESS:    2682169  HIT:          0  MISS:    2682169  HIT %:          0  MISS %:        100   MPKI: 13.4108
LLC PREFETCH  ACCESS:    2295228  HIT:        534  MISS:    2294694  HIT %:  0.0232657  MISS %:    99.9767   MPKI: 11.4735
LLC WRITEBACK ACCESS:    2931021  HIT:    2825803  MISS:     105218  HIT %:    96.4102  MISS %:    3.58981   MPKI: 0.52609

RAW hits: 7805
Loads Generated: 39277749
Loads sent to L1D: 39269944
Stores Generated: 39973665
Stores sent to L1D: 39973664

CPU 3 cumulative IPC: 0.322299 instructions: 200200184 cycles: 621163005
ITLB TOTAL     ACCESS:   42607494  HIT:   42607474  MISS:         20  HIT %:        100  MISS %: 4.69401e-05   MPKI: 9.99e-05
ITLB LOAD      ACCESS:          0  HIT:          0  MISS:          0  HIT %:       -nan  MISS %:       -nan   MPKI: 0
ITLB RFO       ACCESS:          0  HIT:          0  MISS:          0  HIT %:       -nan  MISS %:       -nan   MPKI: 0
ITLB PREFETCH  ACCESS:          0  HIT:          0  MISS:          0  HIT %:       -nan  MISS %:       -nan   MPKI: 0
ITLB WRITEBACK ACCESS:          0  HIT:          0  MISS:          0  HIT %:       -nan  MISS %:       -nan   MPKI: 0
DTLB TOTAL     ACCESS:   41452801  HIT:   41373378  MISS:      79423  HIT %:    99.8084  MISS %:   0.191599   MPKI: 0.396718
DTLB LOAD      ACCESS:          0  HIT:          0  MISS:          0  HIT %:       -nan  MISS %:       -nan   MPKI: 0
DTLB RFO       ACCESS:          0  HIT:          0  MISS:          0  HIT %:       -nan  MISS %:       -nan   MPKI: 0
DTLB PREFETCH  ACCESS:          0  HIT:          0  MISS:          0  HIT %:       -nan  MISS %:       -nan   MPKI: 0
DTLB WRITEBACK ACCESS:          0  HIT:          0  MISS:          0  HIT %:       -nan  MISS %:       -nan   MPKI: 0
STLB TOTAL     ACCESS:    5535793  HIT:    5456352  MISS:      79441  HIT %:     98.565  MISS %:    1.43504   MPKI: 0.396808
STLB LOAD      ACCESS:          0  HIT:          0  MISS:          0  HIT %:       -nan  MISS %:       -nan   MPKI: 0
STLB RFO       ACCESS:          0  HIT:          0  MISS:          0  HIT %:       -nan  MISS %:       -nan   MPKI: 0
STLB PREFETCH  ACCESS:          0  HIT:          0  MISS:          0  HIT %:       -nan  MISS %:       -nan   MPKI: 0
STLB WRITEBACK ACCESS:          0  HIT:          0  MISS:          0  HIT %:       -nan  MISS %:       -nan   MPKI: 0
L1D TOTAL     ACCESS:   34250177  HIT:   29170141  MISS:    5080036  HIT %:    85.1679  MISS %:    14.8321   MPKI: 25.3748
L1D LOAD      ACCESS:    9405301  HIT:    8190662  MISS:    1214639  HIT %:    87.0856  MISS %:    12.9144   MPKI: 6.06712
L1D RFO       ACCESS:   14755110  HIT:   12071101  MISS:    2684009  HIT %:    81.8096  MISS %:    18.1904   MPKI: 13.4066
L1D PREFETCH  ACCESS:   10089766  HIT:    8908378  MISS:    1181388  HIT %:    88.2912  MISS %:    11.7088   MPKI: 5.90103
L1D WRITEBACK ACCESS:          0  HIT:          0  MISS:          0  HIT %:       -nan  MISS %:       -nan   MPKI: 0
L1I TOTAL     ACCESS:   43673176  HIT:   43673009  MISS:        167  HIT %:    99.9996  MISS %: 0.000382386   MPKI: 0.000834165
L1I LOAD      ACCESS:   43673176  HIT:   43673009  MISS:        167  HIT %:    99.9996  MISS %: 0.000382386   MPKI: 0.000834165
L1I RFO       ACCESS:          0  HIT:          0  MISS:          0  HIT %:       -nan  MISS %:       -nan   MPKI: 0
L1I PREFETCH  ACCESS:          0  HIT:          0  MISS:          0  HIT %:       -nan  MISS %:       -nan   MPKI: 0
L1I WRITEBACK ACCESS:          0  HIT:          0  MISS:          0  HIT %:       -nan  MISS %:       -nan   MPKI: 0
L2C TOTAL     ACCESS:   11767508  HIT:    6280722  MISS:    5486786  HIT %:    53.3734  MISS %:    46.6266   MPKI: 27.4065
L2C LOAD      ACCESS:     984077  HIT:     633968  MISS:     350109  HIT %:    64.4226  MISS %:    35.5774   MPKI: 1.74879
L2C RFO       ACCESS:    2684009  HIT:          0  MISS:    2684009  HIT %:          0  MISS %:        100   MPKI: 13.4066
L2C PREFETCH  ACCESS:    4662753  HIT:    2618216  MISS:    2044537  HIT %:    56.1517  MISS %:    43.8483   MPKI: 10.2125
L2C WRITEBACK ACCESS:    2936591  HIT:    2538708  MISS:     397883  HIT %:    86.4509  MISS %:    13.5491   MPKI: 1.98743
PSCL5 TOTAL     ACCESS:     499996  HIT:     499996  MISS:          0  HIT %:        100  MISS %:          0   MPKI: 0
PSCL5 LOAD      ACCESS:          0  HIT:          0  MISS:          0  HIT %:       -nan  MISS %:       -nan   MPKI: 0
PSCL5 RFO       ACCESS:          0  HIT:          0  MISS:          0  HIT %:       -nan  MISS %:       -nan   MPKI: 0
PSCL5 PREFETCH  ACCESS:          0  HIT:          0  MISS:          0  HIT %:       -nan  MISS %:       -nan   MPKI: 0
PSCL5 WRITEBACK ACCESS:          0  HIT:          0  MISS:          0  HIT %:       -nan  MISS %:       -nan   MPKI: 0
PSCL4 TOTAL     ACCESS:     499996  HIT:     499995  MISS:          1  HIT %:    99.9998  MISS %: 0.000200002   MPKI: 4.995e-06
PSCL4 LOAD      ACCESS:          0  HIT:          0  MISS:          0  HIT %:       -nan  MISS %:       -nan   MPKI: 0
PSCL4 RFO       ACCESS:          0  HIT:          0  MISS:          0  HIT %:       -nan  MISS %:       -nan   MPKI: 0
PSCL4 PREFETCH  ACCESS:          0  HIT:          0  MISS:          0  HIT %:       -nan  MISS %:       -nan   MPKI: 0
PSCL4 WRITEBACK ACCESS:          0  HIT:          0  MISS:          0  HIT %:       -nan  MISS %:       -nan   MPKI: 0
PSCL3 TOTAL     ACCESS:     499996  HIT:     499995  MISS:          1  HIT %:    99.9998  MISS %: 0.000200002   MPKI: 4.995e-06
PSCL3 LOAD      ACCESS:          0  HIT:          0  MISS:          0  HIT %:       -nan  MISS %:       -nan   MPKI: 0
PSCL3 RFO       ACCESS:          0  HIT:          0  MISS:          0  HIT %:       -nan  MISS %:       -nan   MPKI: 0
PSCL3 PREFETCH  ACCESS:          0  HIT:          0  MISS:          0  HIT %:       -nan  MISS %:       -nan   MPKI: 0
PSCL3 WRITEBACK ACCESS:          0  HIT:          0  MISS:          0  HIT %:       -nan  MISS %:       -nan   MPKI: 0
PSCL2 TOTAL     ACCESS:     499497  HIT:     499328  MISS:        169  HIT %:    99.9662  MISS %:   0.033834   MPKI: 0.000844155
PSCL2 LOAD      ACCESS:          0  HIT:          0  MISS:          0  HIT %:       -nan  MISS %:       -nan   MPKI: 0
PSCL2 RFO       ACCESS:          0  HIT:          0  MISS:          0  HIT %:       -nan  MISS %:       -nan   MPKI: 0
PSCL2 PREFETCH  ACCESS:          0  HIT:          0  MISS:          0  HIT %:       -nan  MISS %:       -nan   MPKI: 0
PSCL2 WRITEBACK ACCESS:          0  HIT:          0  MISS:          0  HIT %:       -nan  MISS %:       -nan   MPKI: 0
LLC TOTAL     ACCESS:    8023395  HIT:    2832017  MISS:    5191378  HIT %:     35.297  MISS %:     64.703   MPKI: 25.9309
LLC LOAD      ACCESS:      93751  HIT:          7  MISS:      93744  HIT %: 0.00746659  MISS %:    99.9925   MPKI: 0.468251
LLC RFO       ACCESS:    2684009  HIT:          0  MISS:    2684009  HIT %:          0  MISS %:        100   MPKI: 13.4066
LLC PREFETCH  ACCESS:    2300895  HIT:        392  MISS:    2300503  HIT %:  0.0170368  MISS %:     99.983   MPKI: 11.491
LLC WRITEBACK ACCESS:    2934492  HIT:    2831506  MISS:     102986  HIT %:    96.4905  MISS %:     3.5095   MPKI: 0.514415

RAW hits: 7804
Loads Generated: 39334279
Loads sent to L1D: 39326475
Stores Generated: 40003028
Stores sent to L1D: 40003046

Region of Interest Statistics

CPU 0 cumulative IPC: 0.322946 instructions: 200000001 cycles: 619298707
ITLB TOTAL     ACCESS:   42579085  HIT:   42579065  MISS:         20  HIT %:        100  MISS %: 4.69714e-05   MPKI: 0.0001
ITLB LOAD TRANSLATION ACCESS:   42579085  HIT:   42579065  MISS:         20  HIT %:        100  MISS %: 4.69714e-05   MPKI: 0.0001
ITLB PREFETCH  REQUESTED:          0  ISSUED:          0  USEFUL:          0  USELESS:          0
ITLB USEFUL LOAD PREFETCHES:          0 PREFETCH ISSUED TO LOWER LEVEL:          0  ACCURACY: -nan
ITLB TIMELY PREFETCHES:          0 LATE PREFETCHES: 0 DROPPED PREFETCHES: 0
ITLB PREFETCHES SAME FILL-ORIGIN LEVEL: 0 DIFFERENT FILL-ORIGIN LEVEL: 0
ITLB AVERAGE MISS LATENCY: 1165.15 cycles
ITLB RQ	ACCESS:   43759054	FORWARD:          0	MERGED:    1068815	TO_CACHE:   42690239

DTLB TOTAL     ACCESS:   41422660  HIT:   41343320  MISS:      79340  HIT %:    99.8085  MISS %:   0.191538   MPKI: 0.3967
DTLB LOAD TRANSLATION ACCESS:   41422660  HIT:   41343320  MISS:      79340  HIT %:    99.8085  MISS %:   0.191538   MPKI: 0.3967
DTLB PREFETCH  REQUESTED:          0  ISSUED:          0  USEFUL:          0  USELESS:          0
DTLB USEFUL LOAD PREFETCHES:          0 PREFETCH ISSUED TO LOWER LEVEL:          0  ACCURACY: -nan
DTLB TIMELY PREFETCHES:          0 LATE PREFETCHES: 0 DROPPED PREFETCHES: 0
DTLB PREFETCHES SAME FILL-ORIGIN LEVEL: 0 DIFFERENT FILL-ORIGIN LEVEL: 0
DTLB AVERAGE MISS LATENCY: 237.713 cycles
DTLB RQ	ACCESS:   50842523	FORWARD:          0	MERGED:    9017444	TO_CACHE:   41825079

STLB TOTAL     ACCESS:    5535454  HIT:    5456096  MISS:      79358  HIT %:    98.5664  MISS %:    1.43363   MPKI: 0.39679
STLB LOAD TRANSLATION ACCESS:      79360  HIT:       7093  MISS:      72267  HIT %:    8.93775  MISS %:    91.0622   MPKI: 0.361335
STLB TRANSLATION FROM L1D PREFETCHER ACCESS:    5456094  HIT:    5449003  MISS:       7091  HIT %:      99.87  MISS %:   0.129965   MPKI: 0.035455
STLB PREFETCH  REQUESTED:          0  ISSUED:          0  USEFUL:       7294  USELESS:          0
STLB USEFUL LOAD PREFETCHES:       7294 PREFETCH ISSUED TO LOWER LEVEL:          0  ACCURACY: inf
STLB TIMELY PREFETCHES:       7294 LATE PREFETCHES: 8219 DROPPED PREFETCHES: 410589
STLB PREFETCHES SAME FILL-ORIGIN LEVEL: 0 DIFFERENT FILL-ORIGIN LEVEL: 0
STLB AVERAGE MISS LATENCY: 251.764 cycles
STLB RQ	ACCESS:   25921394	FORWARD:          0	MERGED:   19831967	TO_CACHE:    6089427

STLB Hit, L1D data hit: 0
STLB Hit, L2C data hit: 0
STLB Hit, LLC data hit: 0
STLB Hit, LLC data miss: 0
STLB STLB hints to L2: 0
L1D TOTAL     ACCESS:   34273824  HIT:   29198408  MISS:    5075416  HIT %:    85.1916  MISS %:    14.8084   MPKI: 25.3771
L1D LOAD      ACCESS:    9397811  HIT:    8185764  MISS:    1212047  HIT %:    87.1029  MISS %:    12.8971   MPKI: 6.06023
L1D RFO       ACCESS:   14692884  HIT:   12010713  MISS:    2682171  HIT %:    81.7451  MISS %:    18.2549   MPKI: 13.4109
L1D PREFETCH  ACCESS:   10183129  HIT:    9001931  MISS:    1181198  HIT %:    88.4004  MISS %:    11.5996   MPKI: 5.90599
L1D PREFETCH  REQUESTED:   60965774  ISSUED:   60808593  USEFUL:    1186478  USELESS:       2662
L1D USEFUL LOAD PREFETCHES:    1186478 PREFETCH ISSUED TO LOWER LEVEL:    9653749  ACCURACY: 12.2903
L1D TIMELY PREFETCHES:    1186478 LATE PREFETCHES: 231915 DROPPED PREFETCHES: 1271659
L1D PREFETCHES SAME FILL-ORIGIN LEVEL: 1421046 DIFFERENT FILL-ORIGIN LEVEL: 8232703
L1D AVERAGE MISS LATENCY: 1014.71 cycles
L1D RQ	ACCESS:   39483751	FORWARD:          0	MERGED:   28729055	TO_CACHE:   10754674
L1D WQ	ACCESS:   40087849	FORWARD:         22	MERGED:          0	TO_CACHE:   40087849
L1D PQ	ACCESS:   34966879	FORWARD:          0	MERGED:    9125165	TO_CACHE:   25841714

L1D UNIQUE REGIONS ACCESSED: 0
L1D REGIONS CONFLICTS: 0
L1D Cross Page Prefetch Requests: 3830801
L1D Same Page Prefetch Requests: 43832514
L1D ROI Sum of L1D PQ occupancy: 1169610897
L1D PREFETCHES PUSHED FROM L2C: 0
L1I TOTAL     ACCESS:   43644227  HIT:   43644060  MISS:        167  HIT %:    99.9996  MISS %: 0.000382639   MPKI: 0.000835
L1I LOAD      ACCESS:   43644227  HIT:   43644060  MISS:        167  HIT %:    99.9996  MISS %: 0.000382639   MPKI: 0.000835
L1I PREFETCH  REQUESTED:          0  ISSUED:          0  USEFUL:          0  USELESS:          0
L1I USEFUL LOAD PREFETCHES:          0 PREFETCH ISSUED TO LOWER LEVEL:          0  ACCURACY: -nan
L1I TIMELY PREFETCHES:          0 LATE PREFETCHES: 0 DROPPED PREFETCHES: 0
L1I PREFETCHES SAME FILL-ORIGIN LEVEL: 0 DIFFERENT FILL-ORIGIN LEVEL: 0
L1I AVERAGE MISS LATENCY: 1304.86 cycles
L1I RQ	ACCESS:   62320739	FORWARD:          0	MERGED:   18561685	TO_CACHE:   43759054

BTB TOTAL     ACCESS:   28704556  HIT:   28704360  MISS:        196  HIT %:    99.9993  MISS %: 0.000682818   MPKI: 0.00098
BTB BRANCH_DIRECT_JUMP	ACCESS:         87  HIT:         47  MISS:         40
BTB BRANCH_INDIRECT	ACCESS:          2  HIT:          0  MISS:          2
BTB BRANCH_CONDITIONAL	ACCESS:   28704408  HIT:   28704301  MISS:        107
BTB BRANCH_DIRECT_CALL	ACCESS:         30  HIT:          6  MISS:         24
BTB BRANCH_INDIRECT_CALL	ACCESS:          0  HIT:          0  MISS:          0
BTB BRANCH_RETURN	ACCESS:         29  HIT:          6  MISS:         23
BTB BRANCH_OTHER ACCESS:          0  HIT:          0  MISS:          0

L2C TOTAL     ACCESS:   11772195  HIT:    6289795  MISS:    5482400  HIT %:    53.4292  MISS %:    46.5708   MPKI: 27.412
L2C LOAD      ACCESS:     982633  HIT:     633315  MISS:     349318  HIT %:    64.4508  MISS %:    35.5492   MPKI: 1.74659
L2C DATA LOAD MPKI: 1.74575
L2C INSTRUCTION LOAD MPKI: 0.000835
L2C RFO       ACCESS:    2682171  HIT:          0  MISS:    2682171  HIT %:          0  MISS %:        100   MPKI: 13.4109
L2C PREFETCH  ACCESS:    4674867  HIT:    2632793  MISS:    2042074  HIT %:     56.318  MISS %:     43.682   MPKI: 10.2104
L2C DATA PREFETCH MPKI: 10.2104
L2C INSTRUCTION PREFETCH MPKI: 0
L2C WRITEBACK ACCESS:    2934290  HIT:    2535683  MISS:     398607  HIT %:    86.4156  MISS %:    13.5844   MPKI: 1.99303
L2C LOAD TRANSLATION ACCESS:      72266  HIT:      66304  MISS:       5962  HIT %:    91.7499  MISS %:    8.25008   MPKI: 0.02981
L2C TRANSLATION FROM L1D PREFETCHER ACCESS:     425968  HIT:     421700  MISS:       4268  HIT %:     98.998  MISS %:    1.00195   MPKI: 0.02134
L2C PREFETCH  REQUESTED:          0  ISSUED:          0  USEFUL:     639927  USELESS:    1421351
L2C USEFUL LOAD PREFETCHES:     639927 PREFETCH ISSUED TO LOWER LEVEL:    2310566  ACCURACY: 27.6957
L2C TIMELY PREFETCHES:     639927 LATE PREFETCHES: 255868 DROPPED PREFETCHES: 0
L2C PREFETCHES SAME FILL-ORIGIN LEVEL: 1720515 DIFFERENT FILL-ORIGIN LEVEL: 0
L2C AVERAGE MISS LATENCY: 1152.05 cycles
L2C RQ	ACCESS:    4173593	FORWARD:          0	MERGED:          0	TO_CACHE:    4173593
L2C WQ	ACCESS:    2941889	FORWARD:          0	MERGED:          0	TO_CACHE:    2941889
L2C PQ	ACCESS:    9653749	FORWARD:          0	MERGED:     203620	TO_CACHE:    9450129

L2C Instructions Evicting Data 165
L2C Translations Evicting Data 10270
L2C Data Evicting Data 5084047
L2C Instructions Evicting Instructions 2
L2C Translations Evicting Instructions 0
L2C Data Evicting Instructions 153
L2C Instructions Evicting Translations 0
L2C Translations Evicting Translations 2
L2C Data Evicting Translations 9688
L2C Dense regions hint from L2: 0
PSCL5 TOTAL     ACCESS:     498144  HIT:     498144  MISS:          0  HIT %:        100  MISS %:          0   MPKI: 0
PSCL5 LOAD TRANSLATION ACCESS:      72251  HIT:      72251  MISS:          0  HIT %:        100  MISS %:          0   MPKI: 0
PSCL5 TRANSLATION FROM L1D PREFETCHER ACCESS:     425893  HIT:     425893  MISS:          0  HIT %:        100  MISS %:          0   MPKI: 0
PSCL5 PREFETCH  REQUESTED:          0  ISSUED:          0  USEFUL:          0  USELESS:          0
PSCL5 USEFUL LOAD PREFETCHES:          0 PREFETCH ISSUED TO LOWER LEVEL:          0  ACCURACY: -nan
PSCL5 TIMELY PREFETCHES:          0 LATE PREFETCHES: 0 DROPPED PREFETCHES: 0
PSCL5 PREFETCHES SAME FILL-ORIGIN LEVEL: 0 DIFFERENT FILL-ORIGIN LEVEL: 0

PSCL4 TOTAL     ACCESS:     498144  HIT:     498143  MISS:          1  HIT %:    99.9998  MISS %: 0.000200745   MPKI: 5e-06
PSCL4 LOAD TRANSLATION ACCESS:      72251  HIT:      72250  MISS:          1  HIT %:    99.9986  MISS %: 0.00138406   MPKI: 5e-06
PSCL4 TRANSLATION FROM L1D PREFETCHER ACCESS:     425893  HIT:     425893  MISS:          0  HIT %:        100  MISS %:          0   MPKI: 0
PSCL4 PREFETCH  REQUESTED:          0  ISSUED:          0  USEFUL:          0  USELESS:          0
PSCL4 USEFUL LOAD PREFETCHES:          0 PREFETCH ISSUED TO LOWER LEVEL:          0  ACCURACY: -nan
PSCL4 TIMELY PREFETCHES:          0 LATE PREFETCHES: 0 DROPPED PREFETCHES: 0
PSCL4 PREFETCHES SAME FILL-ORIGIN LEVEL: 0 DIFFERENT FILL-ORIGIN LEVEL: 0

PSCL3 TOTAL     ACCESS:     498144  HIT:     498143  MISS:          1  HIT %:    99.9998  MISS %: 0.000200745   MPKI: 5e-06
PSCL3 LOAD TRANSLATION ACCESS:      72251  HIT:      72250  MISS:          1  HIT %:    99.9986  MISS %: 0.00138406   MPKI: 5e-06
PSCL3 TRANSLATION FROM L1D PREFETCHER ACCESS:     425893  HIT:     425893  MISS:          0  HIT %:        100  MISS %:          0   MPKI: 0
PSCL3 PREFETCH  REQUESTED:          0  ISSUED:          0  USEFUL:          0  USELESS:          0
PSCL3 USEFUL LOAD PREFETCHES:          0 PREFETCH ISSUED TO LOWER LEVEL:          0  ACCURACY: -nan
PSCL3 TIMELY PREFETCHES:          0 LATE PREFETCHES: 0 DROPPED PREFETCHES: 0
PSCL3 PREFETCHES SAME FILL-ORIGIN LEVEL: 0 DIFFERENT FILL-ORIGIN LEVEL: 0

PSCL2 TOTAL     ACCESS:     497736  HIT:     497567  MISS:        169  HIT %:     99.966  MISS %:  0.0339537   MPKI: 0.000845
PSCL2 LOAD TRANSLATION ACCESS:      72259  HIT:      72090  MISS:        169  HIT %:    99.7661  MISS %:   0.233881   MPKI: 0.000845
PSCL2 TRANSLATION FROM L1D PREFETCHER ACCESS:     425477  HIT:     425477  MISS:          0  HIT %:        100  MISS %:          0   MPKI: 0
PSCL2 PREFETCH  REQUESTED:          0  ISSUED:          0  USEFUL:          0  USELESS:          0
PSCL2 USEFUL LOAD PREFETCHES:          0 PREFETCH ISSUED TO LOWER LEVEL:          0  ACCURACY: -nan
PSCL2 TIMELY PREFETCHES:          0 LATE PREFETCHES: 0 DROPPED PREFETCHES: 0
PSCL2 PREFETCHES SAME FILL-ORIGIN LEVEL: 0 DIFFERENT FILL-ORIGIN LEVEL: 0

LLC TOTAL     ACCESS:    8013468  HIT:    2827641  MISS:    5185827  HIT %:    35.2861  MISS %:    64.7139   MPKI: 25.9291
LLC LOAD      ACCESS:      94162  HIT:         96  MISS:      94066  HIT %:   0.101952  MISS %:     99.898   MPKI: 0.47033
LLC RFO       ACCESS:    2682171  HIT:          0  MISS:    2682171  HIT %:          0  MISS %:        100   MPKI: 13.4109
LLC PREFETCH  ACCESS:    2297230  HIT:        552  MISS:    2296678  HIT %:  0.0240289  MISS %:     99.976   MPKI: 11.4834
LLC WRITEBACK ACCESS:    2929675  HIT:    2826891  MISS:     102784  HIT %:    96.4916  MISS %:    3.50838   MPKI: 0.51392
LLC LOAD TRANSLATION ACCESS:       5962  HIT:         80  MISS:       5882  HIT %:    1.34183  MISS %:    98.6582   MPKI: 0.02941
LLC TRANSLATION FROM L1D PREFETCHER ACCESS:       4268  HIT:         22  MISS:       4246  HIT %:   0.515464  MISS %:    99.4845   MPKI: 0.02123
LLC PREFETCH  REQUESTED:          0  ISSUED:          0  USEFUL:        177  USELESS:    9275894
LLC USEFUL LOAD PREFETCHES:        177 PREFETCH ISSUED TO LOWER LEVEL:  537727908  ACCURACY: 3.29163e-05
LLC TIMELY PREFETCHES:        177 LATE PREFETCHES: 0 DROPPED PREFETCHES: 0
LLC PREFETCHES SAME FILL-ORIGIN LEVEL: 0 DIFFERENT FILL-ORIGIN LEVEL: 0
LLC AVERAGE MISS LATENCY: 4531.92 cycles
LLC RQ	ACCESS:   11159532	FORWARD:          0	MERGED:          0	TO_CACHE:   11159532
LLC WQ	ACCESS:   11739799	FORWARD:          0	MERGED:          0	TO_CACHE:   11739799
LLC PQ	ACCESS:    9204834	FORWARD:          0	MERGED:          0	TO_CACHE:    9204834

LLC Dense regions hint to LLC: 0

RAW hits: 7802
Loads Generated: 39277745
Loads sent to L1D: 39269943
Stores Generated: 39973656
Stores sent to L1D: 39973656
Major fault: 0 Minor fault: 89531
Allocated PAGES: 358124

CPU 1 cumulative IPC: 0.322321 instructions: 200000002 cycles: 620499987
ITLB TOTAL     ACCESS:   42582281  HIT:   42582261  MISS:         20  HIT %:        100  MISS %: 4.69679e-05   MPKI: 0.0001
ITLB LOAD TRANSLATION ACCESS:   42582281  HIT:   42582261  MISS:         20  HIT %:        100  MISS %: 4.69679e-05   MPKI: 0.0001
ITLB PREFETCH  REQUESTED:          0  ISSUED:          0  USEFUL:          0  USELESS:          0
ITLB USEFUL LOAD PREFETCHES:          0 PREFETCH ISSUED TO LOWER LEVEL:          0  ACCURACY: -nan
ITLB TIMELY PREFETCHES:          0 LATE PREFETCHES: 0 DROPPED PREFETCHES: 0
ITLB PREFETCHES SAME FILL-ORIGIN LEVEL: 0 DIFFERENT FILL-ORIGIN LEVEL: 0
ITLB AVERAGE MISS LATENCY: 754.9 cycles
ITLB RQ	ACCESS:   43669515	FORWARD:          0	MERGED:    1065596	TO_CACHE:   42603919

DTLB TOTAL     ACCESS:   41405610  HIT:   41326272  MISS:      79338  HIT %:    99.8084  MISS %:   0.191612   MPKI: 0.39669
DTLB LOAD TRANSLATION ACCESS:   41405610  HIT:   41326272  MISS:      79338  HIT %:    99.8084  MISS %:   0.191612   MPKI: 0.39669
DTLB PREFETCH  REQUESTED:          0  ISSUED:          0  USEFUL:          0  USELESS:          0
DTLB USEFUL LOAD PREFETCHES:          0 PREFETCH ISSUED TO LOWER LEVEL:          0  ACCURACY: -nan
DTLB TIMELY PREFETCHES:          0 LATE PREFETCHES: 0 DROPPED PREFETCHES: 0
DTLB PREFETCHES SAME FILL-ORIGIN LEVEL: 0 DIFFERENT FILL-ORIGIN LEVEL: 0
DTLB AVERAGE MISS LATENCY: 237.072 cycles
DTLB RQ	ACCESS:   50695373	FORWARD:          0	MERGED:    8988703	TO_CACHE:   41706670

STLB TOTAL     ACCESS:    5516066  HIT:    5436710  MISS:      79356  HIT %:    98.5614  MISS %:    1.43863   MPKI: 0.39678
STLB LOAD TRANSLATION ACCESS:      79358  HIT:       7089  MISS:      72269  HIT %:    8.93294  MISS %:    91.0671   MPKI: 0.361345
STLB TRANSLATION FROM L1D PREFETCHER ACCESS:    5436708  HIT:    5429621  MISS:       7087  HIT %:    99.8696  MISS %:   0.130355   MPKI: 0.035435
STLB PREFETCH  REQUESTED:          0  ISSUED:          0  USEFUL:       7127  USELESS:          0
STLB USEFUL LOAD PREFETCHES:       7127 PREFETCH ISSUED TO LOWER LEVEL:          0  ACCURACY: inf
STLB TIMELY PREFETCHES:       7127 LATE PREFETCHES: 8109 DROPPED PREFETCHES: 414428
STLB PREFETCHES SAME FILL-ORIGIN LEVEL: 0 DIFFERENT FILL-ORIGIN LEVEL: 0
STLB AVERAGE MISS LATENCY: 250.511 cycles
STLB RQ	ACCESS:   25442135	FORWARD:          0	MERGED:   19393256	TO_CACHE:    6048879

STLB Hit, L1D data hit: 0
STLB Hit, L2C data hit: 0
STLB Hit, LLC data hit: 0
STLB Hit, LLC data miss: 0
STLB STLB hints to L2: 0
L1D TOTAL     ACCESS:   33915165  HIT:   28839353  MISS:    5075812  HIT %:    85.0338  MISS %:    14.9662   MPKI: 25.3791
L1D LOAD      ACCESS:    9359135  HIT:    8136053  MISS:    1223082  HIT %:    86.9317  MISS %:    13.0683   MPKI: 6.11541
L1D RFO       ACCESS:   14655735  HIT:   11973562  MISS:    2682173  HIT %:    81.6988  MISS %:    18.3012   MPKI: 13.4109
L1D PREFETCH  ACCESS:    9900295  HIT:    8729738  MISS:    1170557  HIT %:    88.1765  MISS %:    11.8235   MPKI: 5.85278
L1D PREFETCH  REQUESTED:   59652209  ISSUED:   59493902  USEFUL:    1168539  USELESS:       3063
L1D USEFUL LOAD PREFETCHES:    1168539 PREFETCH ISSUED TO LOWER LEVEL:    9608590  ACCURACY: 12.1614
L1D TIMELY PREFETCHES:    1168539 LATE PREFETCHES: 229381 DROPPED PREFETCHES: 1280424
L1D PREFETCHES SAME FILL-ORIGIN LEVEL: 1400970 DIFFERENT FILL-ORIGIN LEVEL: 8207620
L1D AVERAGE MISS LATENCY: 1014.45 cycles
L1D RQ	ACCESS:   39311800	FORWARD:          0	MERGED:   28611860	TO_CACHE:   10699917
L1D WQ	ACCESS:   39995456	FORWARD:         23	MERGED:          0	TO_CACHE:   39995456
L1D PQ	ACCESS:   34131189	FORWARD:          0	MERGED:    8768476	TO_CACHE:   25362713

L1D UNIQUE REGIONS ACCESSED: 0
L1D REGIONS CONFLICTS: 0
L1D Cross Page Prefetch Requests: 3798253
L1D Same Page Prefetch Requests: 43003567
L1D ROI Sum of L1D PQ occupancy: 1159435235
L1D PREFETCHES PUSHED FROM L2C: 0
L1I TOTAL     ACCESS:   43647414  HIT:   43647247  MISS:        167  HIT %:    99.9996  MISS %: 0.000382611   MPKI: 0.000835
L1I LOAD      ACCESS:   43647414  HIT:   43647247  MISS:        167  HIT %:    99.9996  MISS %: 0.000382611   MPKI: 0.000835
L1I PREFETCH  REQUESTED:          0  ISSUED:          0  USEFUL:          0  USELESS:          0
L1I USEFUL LOAD PREFETCHES:          0 PREFETCH ISSUED TO LOWER LEVEL:          0  ACCURACY: -nan
L1I TIMELY PREFETCHES:          0 LATE PREFETCHES: 0 DROPPED PREFETCHES: 0
L1I PREFETCHES SAME FILL-ORIGIN LEVEL: 0 DIFFERENT FILL-ORIGIN LEVEL: 0
L1I AVERAGE MISS LATENCY: 791.036 cycles
L1I RQ	ACCESS:   62160873	FORWARD:          0	MERGED:   18491358	TO_CACHE:   43669515

BTB TOTAL     ACCESS:   28704531  HIT:   28704335  MISS:        196  HIT %:    99.9993  MISS %: 0.000682819   MPKI: 0.00098
BTB BRANCH_DIRECT_JUMP	ACCESS:         87  HIT:         47  MISS:         40
BTB BRANCH_INDIRECT	ACCESS:          2  HIT:          0  MISS:          2
BTB BRANCH_CONDITIONAL	ACCESS:   28704383  HIT:   28704276  MISS:        107
BTB BRANCH_DIRECT_CALL	ACCESS:         30  HIT:          6  MISS:         24
BTB BRANCH_INDIRECT_CALL	ACCESS:          0  HIT:          0  MISS:          0
BTB BRANCH_RETURN	ACCESS:         29  HIT:          6  MISS:         23
BTB BRANCH_OTHER ACCESS:          0  HIT:          0  MISS:          0

L2C TOTAL     ACCESS:   11773063  HIT:    6293774  MISS:    5479289  HIT %:    53.4591  MISS %:    46.5409   MPKI: 27.3964
L2C LOAD      ACCESS:     994251  HIT:     639724  MISS:     354527  HIT %:    64.3423  MISS %:    35.6577   MPKI: 1.77263
L2C DATA LOAD MPKI: 1.7718
L2C INSTRUCTION LOAD MPKI: 0.000835
L2C RFO       ACCESS:    2682173  HIT:          0  MISS:    2682173  HIT %:          0  MISS %:        100   MPKI: 13.4109
L2C PREFETCH  ACCESS:    4660407  HIT:    2623914  MISS:    2036493  HIT %:    56.3022  MISS %:    43.6978   MPKI: 10.1825
L2C DATA PREFETCH MPKI: 10.1825
L2C INSTRUCTION PREFETCH MPKI: 0
L2C WRITEBACK ACCESS:    2934280  HIT:    2538410  MISS:     395870  HIT %:    86.5088  MISS %:    13.4912   MPKI: 1.97935
L2C LOAD TRANSLATION ACCESS:      72267  HIT:      66307  MISS:       5960  HIT %:    91.7528  MISS %:    8.24719   MPKI: 0.0298
L2C TRANSLATION FROM L1D PREFETCHER ACCESS:     429685  HIT:     425419  MISS:       4266  HIT %:    99.0072  MISS %:    0.99282   MPKI: 0.02133
L2C PREFETCH  REQUESTED:          0  ISSUED:          0  USEFUL:     644801  USELESS:    1401306
L2C USEFUL LOAD PREFETCHES:     644801 PREFETCH ISSUED TO LOWER LEVEL:    2298130  ACCURACY: 28.0576
L2C TIMELY PREFETCHES:     644801 LATE PREFETCHES: 259370 DROPPED PREFETCHES: 0
L2C PREFETCHES SAME FILL-ORIGIN LEVEL: 1717144 DIFFERENT FILL-ORIGIN LEVEL: 0
L2C AVERAGE MISS LATENCY: 1151.69 cycles
L2C RQ	ACCESS:    4181005	FORWARD:          0	MERGED:          0	TO_CACHE:    4181005
L2C WQ	ACCESS:    2936125	FORWARD:          0	MERGED:          0	TO_CACHE:    2936125
L2C PQ	ACCESS:    9608590	FORWARD:          0	MERGED:     203387	TO_CACHE:    9405203

L2C Instructions Evicting Data 167
L2C Translations Evicting Data 10224
L2C Data Evicting Data 5067140
L2C Instructions Evicting Instructions 0
L2C Translations Evicting Instructions 0
L2C Data Evicting Instructions 156
L2C Instructions Evicting Translations 0
L2C Translations Evicting Translations 11
L2C Data Evicting Translations 9699
L2C Dense regions hint from L2: 0
PSCL5 TOTAL     ACCESS:     501876  HIT:     501876  MISS:          0  HIT %:        100  MISS %:          0   MPKI: 0
PSCL5 LOAD TRANSLATION ACCESS:      72253  HIT:      72253  MISS:          0  HIT %:        100  MISS %:          0   MPKI: 0
PSCL5 TRANSLATION FROM L1D PREFETCHER ACCESS:     429623  HIT:     429623  MISS:          0  HIT %:        100  MISS %:          0   MPKI: 0
PSCL5 PREFETCH  REQUESTED:          0  ISSUED:          0  USEFUL:          0  USELESS:          0
PSCL5 USEFUL LOAD PREFETCHES:          0 PREFETCH ISSUED TO LOWER LEVEL:          0  ACCURACY: -nan
PSCL5 TIMELY PREFETCHES:          0 LATE PREFETCHES: 0 DROPPED PREFETCHES: 0
PSCL5 PREFETCHES SAME FILL-ORIGIN LEVEL: 0 DIFFERENT FILL-ORIGIN LEVEL: 0

PSCL4 TOTAL     ACCESS:     501876  HIT:     501875  MISS:          1  HIT %:    99.9998  MISS %: 0.000199252   MPKI: 5e-06
PSCL4 LOAD TRANSLATION ACCESS:      72253  HIT:      72252  MISS:          1  HIT %:    99.9986  MISS %: 0.00138403   MPKI: 5e-06
PSCL4 TRANSLATION FROM L1D PREFETCHER ACCESS:     429623  HIT:     429623  MISS:          0  HIT %:        100  MISS %:          0   MPKI: 0
PSCL4 PREFETCH  REQUESTED:          0  ISSUED:          0  USEFUL:          0  USELESS:          0
PSCL4 USEFUL LOAD PREFETCHES:          0 PREFETCH ISSUED TO LOWER LEVEL:          0  ACCURACY: -nan
PSCL4 TIMELY PREFETCHES:          0 LATE PREFETCHES: 0 DROPPED PREFETCHES: 0
PSCL4 PREFETCHES SAME FILL-ORIGIN LEVEL: 0 DIFFERENT FILL-ORIGIN LEVEL: 0

PSCL3 TOTAL     ACCESS:     501876  HIT:     501875  MISS:          1  HIT %:    99.9998  MISS %: 0.000199252   MPKI: 5e-06
PSCL3 LOAD TRANSLATION ACCESS:      72253  HIT:      72252  MISS:          1  HIT %:    99.9986  MISS %: 0.00138403   MPKI: 5e-06
PSCL3 TRANSLATION FROM L1D PREFETCHER ACCESS:     429623  HIT:     429623  MISS:          0  HIT %:        100  MISS %:          0   MPKI: 0
PSCL3 PREFETCH  REQUESTED:          0  ISSUED:          0  USEFUL:          0  USELESS:          0
PSCL3 USEFUL LOAD PREFETCHES:          0 PREFETCH ISSUED TO LOWER LEVEL:          0  ACCURACY: -nan
PSCL3 TIMELY PREFETCHES:          0 LATE PREFETCHES: 0 DROPPED PREFETCHES: 0
PSCL3 PREFETCHES SAME FILL-ORIGIN LEVEL: 0 DIFFERENT FILL-ORIGIN LEVEL: 0

PSCL2 TOTAL     ACCESS:     501588  HIT:     501420  MISS:        168  HIT %:    99.9665  MISS %:  0.0334936   MPKI: 0.00084
PSCL2 LOAD TRANSLATION ACCESS:      72260  HIT:      72092  MISS:        168  HIT %:    99.7675  MISS %:   0.232494   MPKI: 0.00084
PSCL2 TRANSLATION FROM L1D PREFETCHER ACCESS:     429328  HIT:     429328  MISS:          0  HIT %:        100  MISS %:          0   MPKI: 0
PSCL2 PREFETCH  REQUESTED:          0  ISSUED:          0  USEFUL:          0  USELESS:          0
PSCL2 USEFUL LOAD PREFETCHES:          0 PREFETCH ISSUED TO LOWER LEVEL:          0  ACCURACY: -nan
PSCL2 TIMELY PREFETCHES:          0 LATE PREFETCHES: 0 DROPPED PREFETCHES: 0
PSCL2 PREFETCHES SAME FILL-ORIGIN LEVEL: 0 DIFFERENT FILL-ORIGIN LEVEL: 0

LLC TOTAL     ACCESS:    8014295  HIT:    2828573  MISS:    5185722  HIT %:    35.2941  MISS %:    64.7059   MPKI: 25.9286
LLC LOAD      ACCESS:      95510  HIT:         12  MISS:      95498  HIT %:  0.0125641  MISS %:    99.9874   MPKI: 0.47749
LLC RFO       ACCESS:    2682173  HIT:          0  MISS:    2682173  HIT %:          0  MISS %:        100   MPKI: 13.4109
LLC PREFETCH  ACCESS:    2295510  HIT:        295  MISS:    2295215  HIT %:  0.0128512  MISS %:    99.9871   MPKI: 11.4761
LLC WRITEBACK ACCESS:    2930876  HIT:    2828171  MISS:     102705  HIT %:    96.4958  MISS %:    3.50424   MPKI: 0.513525
LLC LOAD TRANSLATION ACCESS:       5960  HIT:         77  MISS:       5883  HIT %:    1.29195  MISS %:    98.7081   MPKI: 0.029415
LLC TRANSLATION FROM L1D PREFETCHER ACCESS:       4266  HIT:         18  MISS:       4248  HIT %:   0.421941  MISS %:    99.5781   MPKI: 0.02124
LLC PREFETCH  REQUESTED:          0  ISSUED:          0  USEFUL:        177  USELESS:    9275894
LLC USEFUL LOAD PREFETCHES:        177 PREFETCH ISSUED TO LOWER LEVEL:  537727908  ACCURACY: 3.29163e-05
LLC TIMELY PREFETCHES:        177 LATE PREFETCHES: 0 DROPPED PREFETCHES: 0
LLC PREFETCHES SAME FILL-ORIGIN LEVEL: 0 DIFFERENT FILL-ORIGIN LEVEL: 0
LLC AVERAGE MISS LATENCY: 4532.01 cycles
LLC RQ	ACCESS:   11159532	FORWARD:          0	MERGED:          0	TO_CACHE:   11159532
LLC WQ	ACCESS:   11739799	FORWARD:          0	MERGED:          0	TO_CACHE:   11739799
LLC PQ	ACCESS:    9204834	FORWARD:          0	MERGED:          0	TO_CACHE:    9204834

LLC Dense regions hint to LLC: 0

RAW hits: 7806
Loads Generated: 39277773
Loads sent to L1D: 39269965
Stores Generated: 39973669
Stores sent to L1D: 39973660
Major fault: 0 Minor fault: 89531
Allocated PAGES: 358124

CPU 2 cumulative IPC: 0.321977 instructions: 200000001 cycles: 621163005
ITLB TOTAL     ACCESS:   42582063  HIT:   42582043  MISS:         20  HIT %:        100  MISS %: 4.69681e-05   MPKI: 0.0001
ITLB LOAD TRANSLATION ACCESS:   42582063  HIT:   42582043  MISS:         20  HIT %:        100  MISS %: 4.69681e-05   MPKI: 0.0001
ITLB PREFETCH  REQUESTED:          0  ISSUED:          0  USEFUL:          0  USELESS:          0
ITLB USEFUL LOAD PREFETCHES:          0 PREFETCH ISSUED TO LOWER LEVEL:          0  ACCURACY: -nan
ITLB TIMELY PREFETCHES:          0 LATE PREFETCHES: 0 DROPPED PREFETCHES: 0
ITLB PREFETCHES SAME FILL-ORIGIN LEVEL: 0 DIFFERENT FILL-ORIGIN LEVEL: 0
ITLB AVERAGE MISS LATENCY: 344.35 cycles
ITLB RQ	ACCESS:   43647234	FORWARD:          0	MERGED:    1065166	TO_CACHE:   42582068

DTLB TOTAL     ACCESS:   41406680  HIT:   41327342  MISS:      79338  HIT %:    99.8084  MISS %:   0.191607   MPKI: 0.39669
DTLB LOAD TRANSLATION ACCESS:   41406680  HIT:   41327342  MISS:      79338  HIT %:    99.8084  MISS %:   0.191607   MPKI: 0.39669
DTLB PREFETCH  REQUESTED:          0  ISSUED:          0  USEFUL:          0  USELESS:          0
DTLB USEFUL LOAD PREFETCHES:          0 PREFETCH ISSUED TO LOWER LEVEL:          0  ACCURACY: -nan
DTLB TIMELY PREFETCHES:          0 LATE PREFETCHES: 0 DROPPED PREFETCHES: 0
DTLB PREFETCHES SAME FILL-ORIGIN LEVEL: 0 DIFFERENT FILL-ORIGIN LEVEL: 0
DTLB AVERAGE MISS LATENCY: 238.647 cycles
DTLB RQ	ACCESS:   50665679	FORWARD:          0	MERGED:    8981037	TO_CACHE:   41684642

STLB TOTAL     ACCESS:    5517568  HIT:    5438212  MISS:      79356  HIT %:    98.5618  MISS %:    1.43824   MPKI: 0.39678
STLB LOAD TRANSLATION ACCESS:      79358  HIT:       7083  MISS:      72275  HIT %:    8.92538  MISS %:    91.0746   MPKI: 0.361375
STLB TRANSLATION FROM L1D PREFETCHER ACCESS:    5438210  HIT:    5431129  MISS:       7081  HIT %:    99.8698  MISS %:   0.130208   MPKI: 0.035405
STLB PREFETCH  REQUESTED:          0  ISSUED:          0  USEFUL:       7081  USELESS:          0
STLB USEFUL LOAD PREFETCHES:       7081 PREFETCH ISSUED TO LOWER LEVEL:          0  ACCURACY: inf
STLB TIMELY PREFETCHES:       7081 LATE PREFETCHES: 8139 DROPPED PREFETCHES: 414655
STLB PREFETCHES SAME FILL-ORIGIN LEVEL: 0 DIFFERENT FILL-ORIGIN LEVEL: 0
STLB AVERAGE MISS LATENCY: 251.504 cycles
STLB RQ	ACCESS:   25491536	FORWARD:          0	MERGED:   19446169	TO_CACHE:    6045367

STLB Hit, L1D data hit: 0
STLB Hit, L2C data hit: 0
STLB Hit, LLC data hit: 0
STLB Hit, LLC data miss: 0
STLB STLB hints to L2: 0
L1D TOTAL     ACCESS:   34062371  HIT:   28986657  MISS:    5075714  HIT %:    85.0988  MISS %:    14.9012   MPKI: 25.3786
L1D LOAD      ACCESS:    9365848  HIT:    8146312  MISS:    1219536  HIT %:    86.9789  MISS %:    13.0211   MPKI: 6.09768
L1D RFO       ACCESS:   14737406  HIT:   12055237  MISS:    2682169  HIT %:    81.8003  MISS %:    18.1997   MPKI: 13.4108
L1D PREFETCH  ACCESS:    9959117  HIT:    8785108  MISS:    1174009  HIT %:    88.2117  MISS %:    11.7883   MPKI: 5.87004
L1D PREFETCH  REQUESTED:   59837397  ISSUED:   59682372  USEFUL:    1171050  USELESS:       2963
L1D USEFUL LOAD PREFETCHES:    1171050 PREFETCH ISSUED TO LOWER LEVEL:    9583327  ACCURACY: 12.2197
L1D TIMELY PREFETCHES:    1171050 LATE PREFETCHES: 228895 DROPPED PREFETCHES: 1275171
L1D PREFETCHES SAME FILL-ORIGIN LEVEL: 1402905 DIFFERENT FILL-ORIGIN LEVEL: 8180422
L1D AVERAGE MISS LATENCY: 1011.12 cycles
L1D RQ	ACCESS:   39269944	FORWARD:          0	MERGED:   28577905	TO_CACHE:   10692015
L1D WQ	ACCESS:   39973664	FORWARD:         24	MERGED:          0	TO_CACHE:   39973664
L1D PQ	ACCESS:   34270195	FORWARD:          0	MERGED:    8858018	TO_CACHE:   25412177

L1D UNIQUE REGIONS ACCESSED: 0
L1D REGIONS CONFLICTS: 0
L1D Cross Page Prefetch Requests: 3791696
L1D Same Page Prefetch Requests: 43121273
L1D ROI Sum of L1D PQ occupancy: 1163247674
L1D PREFETCHES PUSHED FROM L2C: 0
L1I TOTAL     ACCESS:   43647209  HIT:   43647042  MISS:        167  HIT %:    99.9996  MISS %: 0.000382613   MPKI: 0.000835
L1I LOAD      ACCESS:   43647209  HIT:   43647042  MISS:        167  HIT %:    99.9996  MISS %: 0.000382613   MPKI: 0.000835
L1I PREFETCH  REQUESTED:          0  ISSUED:          0  USEFUL:          0  USELESS:          0
L1I USEFUL LOAD PREFETCHES:          0 PREFETCH ISSUED TO LOWER LEVEL:          0  ACCURACY: -nan
L1I TIMELY PREFETCHES:          0 LATE PREFETCHES: 0 DROPPED PREFETCHES: 0
L1I PREFETCHES SAME FILL-ORIGIN LEVEL: 0 DIFFERENT FILL-ORIGIN LEVEL: 0
L1I AVERAGE MISS LATENCY: 465.545 cycles
L1I RQ	ACCESS:   62120123	FORWARD:          0	MERGED:   18472889	TO_CACHE:   43647234

BTB TOTAL     ACCESS:   28704513  HIT:   28704317  MISS:        196  HIT %:    99.9993  MISS %: 0.000682819   MPKI: 0.00098
BTB BRANCH_DIRECT_JUMP	ACCESS:         87  HIT:         47  MISS:         40
BTB BRANCH_INDIRECT	ACCESS:          2  HIT:          0  MISS:          2
BTB BRANCH_CONDITIONAL	ACCESS:   28704365  HIT:   28704258  MISS:        107
BTB BRANCH_DIRECT_CALL	ACCESS:         30  HIT:          6  MISS:         24
BTB BRANCH_INDIRECT_CALL	ACCESS:          0  HIT:          0  MISS:          0
BTB BRANCH_RETURN	ACCESS:         29  HIT:          6  MISS:         23
BTB BRANCH_OTHER ACCESS:          0  HIT:          0  MISS:          0

L2C TOTAL     ACCESS:   11786056  HIT:    6306849  MISS:    5479207  HIT %:    53.5111  MISS %:    46.4889   MPKI: 27.396
L2C LOAD      ACCESS:     990808  HIT:     636600  MISS:     354208  HIT %:    64.2506  MISS %:    35.7494   MPKI: 1.77104
L2C DATA LOAD MPKI: 1.7702
L2C INSTRUCTION LOAD MPKI: 0.000835
L2C RFO       ACCESS:    2682169  HIT:          0  MISS:    2682169  HIT %:          0  MISS %:        100   MPKI: 13.4108
L2C PREFETCH  ACCESS:    4676617  HIT:    2639533  MISS:    2037084  HIT %:    56.4411  MISS %:    43.5589   MPKI: 10.1854
L2C DATA PREFETCH MPKI: 10.1854
L2C INSTRUCTION PREFETCH MPKI: 0
L2C WRITEBACK ACCESS:    2934275  HIT:    2538747  MISS:     395528  HIT %:    86.5204  MISS %:    13.4796   MPKI: 1.97764
L2C LOAD TRANSLATION ACCESS:      72272  HIT:      66317  MISS:       5955  HIT %:    91.7603  MISS %:    8.23971   MPKI: 0.029775
L2C TRANSLATION FROM L1D PREFETCHER ACCESS:     429915  HIT:     425652  MISS:       4263  HIT %:    99.0084  MISS %:   0.991591   MPKI: 0.021315
L2C PREFETCH  REQUESTED:          0  ISSUED:          0  USEFUL:     640821  USELESS:    1404179
L2C USEFUL LOAD PREFETCHES:     640821 PREFETCH ISSUED TO LOWER LEVEL:    2295231  ACCURACY: 27.9197
L2C TIMELY PREFETCHES:     640821 LATE PREFETCHES: 258144 DROPPED PREFETCHES: 0
L2C PREFETCHES SAME FILL-ORIGIN LEVEL: 1704079 DIFFERENT FILL-ORIGIN LEVEL: 0
L2C AVERAGE MISS LATENCY: 1147.92 cycles
L2C RQ	ACCESS:    4175173	FORWARD:          0	MERGED:          0	TO_CACHE:    4175173
L2C WQ	ACCESS:    2934275	FORWARD:          0	MERGED:          0	TO_CACHE:    2934275
L2C PQ	ACCESS:    9583327	FORWARD:          0	MERGED:     203380	TO_CACHE:    9379947

L2C Instructions Evicting Data 167
L2C Translations Evicting Data 10212
L2C Data Evicting Data 5063484
L2C Instructions Evicting Instructions 0
L2C Translations Evicting Instructions 0
L2C Data Evicting Instructions 143
L2C Instructions Evicting Translations 0
L2C Translations Evicting Translations 6
L2C Data Evicting Translations 9667
L2C Dense regions hint from L2: 0
PSCL5 TOTAL     ACCESS:     502134  HIT:     502134  MISS:          0  HIT %:        100  MISS %:          0   MPKI: 0
PSCL5 LOAD TRANSLATION ACCESS:      72259  HIT:      72259  MISS:          0  HIT %:        100  MISS %:          0   MPKI: 0
PSCL5 TRANSLATION FROM L1D PREFETCHER ACCESS:     429875  HIT:     429875  MISS:          0  HIT %:        100  MISS %:          0   MPKI: 0
PSCL5 PREFETCH  REQUESTED:          0  ISSUED:          0  USEFUL:          0  USELESS:          0
PSCL5 USEFUL LOAD PREFETCHES:          0 PREFETCH ISSUED TO LOWER LEVEL:          0  ACCURACY: -nan
PSCL5 TIMELY PREFETCHES:          0 LATE PREFETCHES: 0 DROPPED PREFETCHES: 0
PSCL5 PREFETCHES SAME FILL-ORIGIN LEVEL: 0 DIFFERENT FILL-ORIGIN LEVEL: 0

PSCL4 TOTAL     ACCESS:     502134  HIT:     502133  MISS:          1  HIT %:    99.9998  MISS %: 0.00019915   MPKI: 5e-06
PSCL4 LOAD TRANSLATION ACCESS:      72259  HIT:      72258  MISS:          1  HIT %:    99.9986  MISS %: 0.00138391   MPKI: 5e-06
PSCL4 TRANSLATION FROM L1D PREFETCHER ACCESS:     429875  HIT:     429875  MISS:          0  HIT %:        100  MISS %:          0   MPKI: 0
PSCL4 PREFETCH  REQUESTED:          0  ISSUED:          0  USEFUL:          0  USELESS:          0
PSCL4 USEFUL LOAD PREFETCHES:          0 PREFETCH ISSUED TO LOWER LEVEL:          0  ACCURACY: -nan
PSCL4 TIMELY PREFETCHES:          0 LATE PREFETCHES: 0 DROPPED PREFETCHES: 0
PSCL4 PREFETCHES SAME FILL-ORIGIN LEVEL: 0 DIFFERENT FILL-ORIGIN LEVEL: 0

PSCL3 TOTAL     ACCESS:     502134  HIT:     502133  MISS:          1  HIT %:    99.9998  MISS %: 0.00019915   MPKI: 5e-06
PSCL3 LOAD TRANSLATION ACCESS:      72259  HIT:      72258  MISS:          1  HIT %:    99.9986  MISS %: 0.00138391   MPKI: 5e-06
PSCL3 TRANSLATION FROM L1D PREFETCHER ACCESS:     429875  HIT:     429875  MISS:          0  HIT %:        100  MISS %:          0   MPKI: 0
PSCL3 PREFETCH  REQUESTED:          0  ISSUED:          0  USEFUL:          0  USELESS:          0
PSCL3 USEFUL LOAD PREFETCHES:          0 PREFETCH ISSUED TO LOWER LEVEL:          0  ACCURACY: -nan
PSCL3 TIMELY PREFETCHES:          0 LATE PREFETCHES: 0 DROPPED PREFETCHES: 0
PSCL3 PREFETCHES SAME FILL-ORIGIN LEVEL: 0 DIFFERENT FILL-ORIGIN LEVEL: 0

PSCL2 TOTAL     ACCESS:     501768  HIT:     501600  MISS:        168  HIT %:    99.9665  MISS %:  0.0334816   MPKI: 0.00084
PSCL2 LOAD TRANSLATION ACCESS:      72266  HIT:      72098  MISS:        168  HIT %:    99.7675  MISS %:   0.232474   MPKI: 0.00084
PSCL2 TRANSLATION FROM L1D PREFETCHER ACCESS:     429502  HIT:     429502  MISS:          0  HIT %:        100  MISS %:          0   MPKI: 0
PSCL2 PREFETCH  REQUESTED:          0  ISSUED:          0  USEFUL:          0  USELESS:          0
PSCL2 USEFUL LOAD PREFETCHES:          0 PREFETCH ISSUED TO LOWER LEVEL:          0  ACCURACY: -nan
PSCL2 TIMELY PREFETCHES:          0 LATE PREFETCHES: 0 DROPPED PREFETCHES: 0
PSCL2 PREFETCHES SAME FILL-ORIGIN LEVEL: 0 DIFFERENT FILL-ORIGIN LEVEL: 0

LLC TOTAL     ACCESS:    8014700  HIT:    2826432  MISS:    5188268  HIT %:    35.2656  MISS %:    64.7344   MPKI: 25.9413
LLC LOAD      ACCESS:      96064  HIT:          6  MISS:      96058  HIT %: 0.00624584  MISS %:    99.9938   MPKI: 0.48029
LLC RFO       ACCESS:    2682169  HIT:          0  MISS:    2682169  HIT %:          0  MISS %:        100   MPKI: 13.4108
LLC PREFETCH  ACCESS:    2295228  HIT:        534  MISS:    2294694  HIT %:  0.0232657  MISS %:    99.9767   MPKI: 11.4735
LLC WRITEBACK ACCESS:    2931021  HIT:    2825803  MISS:     105218  HIT %:    96.4102  MISS %:    3.58981   MPKI: 0.52609
LLC LOAD TRANSLATION ACCESS:       5955  HIT:         69  MISS:       5886  HIT %:    1.15869  MISS %:    98.8413   MPKI: 0.02943
LLC TRANSLATION FROM L1D PREFETCHER ACCESS:       4263  HIT:         20  MISS:       4243  HIT %:   0.469153  MISS %:    99.5308   MPKI: 0.021215
LLC PREFETCH  REQUESTED:          0  ISSUED:          0  USEFUL:        177  USELESS:    9275894
LLC USEFUL LOAD PREFETCHES:        177 PREFETCH ISSUED TO LOWER LEVEL:  537727908  ACCURACY: 3.29163e-05
LLC TIMELY PREFETCHES:        177 LATE PREFETCHES: 0 DROPPED PREFETCHES: 0
LLC PREFETCHES SAME FILL-ORIGIN LEVEL: 0 DIFFERENT FILL-ORIGIN LEVEL: 0
LLC AVERAGE MISS LATENCY: 4529.78 cycles
LLC RQ	ACCESS:   11159532	FORWARD:          0	MERGED:          0	TO_CACHE:   11159532
LLC WQ	ACCESS:   11739799	FORWARD:          0	MERGED:          0	TO_CACHE:   11739799
LLC PQ	ACCESS:    9204834	FORWARD:          0	MERGED:          0	TO_CACHE:    9204834

LLC Dense regions hint to LLC: 0

RAW hits: 7805
Loads Generated: 39277749
Loads sent to L1D: 39269944
Stores Generated: 39973665
Stores sent to L1D: 39973664
Major fault: 0 Minor fault: 89531
Allocated PAGES: 358124

CPU 3 cumulative IPC: 0.322371 instructions: 200000003 cycles: 620403087
ITLB TOTAL     ACCESS:   42578312  HIT:   42578292  MISS:         20  HIT %:        100  MISS %: 4.69723e-05   MPKI: 0.0001
ITLB LOAD TRANSLATION ACCESS:   42578312  HIT:   42578292  MISS:         20  HIT %:        100  MISS %: 4.69723e-05   MPKI: 0.0001
ITLB PREFETCH  REQUESTED:          0  ISSUED:          0  USEFUL:          0  USELESS:          0
ITLB USEFUL LOAD PREFETCHES:          0 PREFETCH ISSUED TO LOWER LEVEL:          0  ACCURACY: -nan
ITLB TIMELY PREFETCHES:          0 LATE PREFETCHES: 0 DROPPED PREFETCHES: 0
ITLB PREFETCHES SAME FILL-ORIGIN LEVEL: 0 DIFFERENT FILL-ORIGIN LEVEL: 0
ITLB AVERAGE MISS LATENCY: 618.4 cycles
ITLB RQ	ACCESS:   43673201	FORWARD:          0	MERGED:    1065703	TO_CACHE:   42607498

DTLB TOTAL     ACCESS:   41421458  HIT:   41342122  MISS:      79336  HIT %:    99.8085  MISS %:   0.191534   MPKI: 0.39668
DTLB LOAD TRANSLATION ACCESS:   41421458  HIT:   41342122  MISS:      79336  HIT %:    99.8085  MISS %:   0.191534   MPKI: 0.39668
DTLB PREFETCH  REQUESTED:          0  ISSUED:          0  USEFUL:          0  USELESS:          0
DTLB USEFUL LOAD PREFETCHES:          0 PREFETCH ISSUED TO LOWER LEVEL:          0  ACCURACY: -nan
DTLB TIMELY PREFETCHES:          0 LATE PREFETCHES: 0 DROPPED PREFETCHES: 0
DTLB PREFETCHES SAME FILL-ORIGIN LEVEL: 0 DIFFERENT FILL-ORIGIN LEVEL: 0
DTLB AVERAGE MISS LATENCY: 239.318 cycles
DTLB RQ	ACCESS:   50718733	FORWARD:          0	MERGED:    8988936	TO_CACHE:   41729797

STLB TOTAL     ACCESS:    5528651  HIT:    5449297  MISS:      79354  HIT %:    98.5647  MISS %:    1.43532   MPKI: 0.39677
STLB LOAD TRANSLATION ACCESS:      79356  HIT:       7088  MISS:      72268  HIT %:     8.9319  MISS %:    91.0681   MPKI: 0.36134
STLB TRANSLATION FROM L1D PREFETCHER ACCESS:    5449295  HIT:    5442209  MISS:       7086  HIT %:      99.87  MISS %:   0.130035   MPKI: 0.03543
STLB PREFETCH  REQUESTED:          0  ISSUED:          0  USEFUL:       7138  USELESS:          0
STLB USEFUL LOAD PREFETCHES:       7138 PREFETCH ISSUED TO LOWER LEVEL:          0  ACCURACY: inf
STLB TIMELY PREFETCHES:       7138 LATE PREFETCHES: 8168 DROPPED PREFETCHES: 412407
STLB PREFETCHES SAME FILL-ORIGIN LEVEL: 0 DIFFERENT FILL-ORIGIN LEVEL: 0
STLB AVERAGE MISS LATENCY: 252.372 cycles
STLB RQ	ACCESS:   25669806	FORWARD:          0	MERGED:   19609833	TO_CACHE:    6059973

STLB Hit, L1D data hit: 0
STLB Hit, L2C data hit: 0
STLB Hit, LLC data hit: 0
STLB Hit, LLC data miss: 0
STLB STLB hints to L2: 0
L1D TOTAL     ACCESS:   34225009  HIT:   29150344  MISS:    5074665  HIT %:    85.1726  MISS %:    14.8274   MPKI: 25.3733
L1D LOAD      ACCESS:    9394888  HIT:    8181819  MISS:    1213069  HIT %:     87.088  MISS %:     12.912   MPKI: 6.06534
L1D RFO       ACCESS:   14750261  HIT:   12068085  MISS:    2682176  HIT %:    81.8161  MISS %:    18.1839   MPKI: 13.4109
L1D PREFETCH  ACCESS:   10079860  HIT:    8900440  MISS:    1179420  HIT %:    88.2992  MISS %:    11.7008   MPKI: 5.8971
L1D PREFETCH  REQUESTED:   60301528  ISSUED:   60150674  USEFUL:    1179480  USELESS:       1918
L1D USEFUL LOAD PREFETCHES:    1179480 PREFETCH ISSUED TO LOWER LEVEL:    9556651  ACCURACY: 12.342
L1D TIMELY PREFETCHES:    1179480 LATE PREFETCHES: 230730 DROPPED PREFETCHES: 1268250
L1D PREFETCHES SAME FILL-ORIGIN LEVEL: 1412122 DIFFERENT FILL-ORIGIN LEVEL: 8144529
L1D AVERAGE MISS LATENCY: 1014.69 cycles
L1D RQ	ACCESS:   39326475	FORWARD:          0	MERGED:   28610765	TO_CACHE:   10715687
L1D WQ	ACCESS:   40003046	FORWARD:         23	MERGED:          0	TO_CACHE:   40003046
L1D PQ	ACCESS:   34560311	FORWARD:          0	MERGED:    8969948	TO_CACHE:   25590363

L1D UNIQUE REGIONS ACCESSED: 0
L1D REGIONS CONFLICTS: 0
L1D Cross Page Prefetch Requests: 3794702
L1D Same Page Prefetch Requests: 43320328
L1D ROI Sum of L1D PQ occupancy: 1167841970
L1D PREFETCHES PUSHED FROM L2C: 0
L1I TOTAL     ACCESS:   43643456  HIT:   43643289  MISS:        167  HIT %:    99.9996  MISS %: 0.000382646   MPKI: 0.000835
L1I LOAD      ACCESS:   43643456  HIT:   43643289  MISS:        167  HIT %:    99.9996  MISS %: 0.000382646   MPKI: 0.000835
L1I PREFETCH  REQUESTED:          0  ISSUED:          0  USEFUL:          0  USELESS:          0
L1I USEFUL LOAD PREFETCHES:          0 PREFETCH ISSUED TO LOWER LEVEL:          0  ACCURACY: -nan
L1I TIMELY PREFETCHES:          0 LATE PREFETCHES: 0 DROPPED PREFETCHES: 0
L1I PREFETCHES SAME FILL-ORIGIN LEVEL: 0 DIFFERENT FILL-ORIGIN LEVEL: 0
L1I AVERAGE MISS LATENCY: 958.838 cycles
L1I RQ	ACCESS:   62170427	FORWARD:          0	MERGED:   18497226	TO_CACHE:   43673201

BTB TOTAL     ACCESS:   28704466  HIT:   28704267  MISS:        199  HIT %:    99.9993  MISS %: 0.000693272   MPKI: 0.000995
BTB BRANCH_DIRECT_JUMP	ACCESS:         87  HIT:         47  MISS:         40
BTB BRANCH_INDIRECT	ACCESS:          2  HIT:          0  MISS:          2
BTB BRANCH_CONDITIONAL	ACCESS:   28704318  HIT:   28704208  MISS:        110
BTB BRANCH_DIRECT_CALL	ACCESS:         30  HIT:          6  MISS:         24
BTB BRANCH_INDIRECT_CALL	ACCESS:          0  HIT:          0  MISS:          0
BTB BRANCH_RETURN	ACCESS:         29  HIT:          6  MISS:         23
BTB BRANCH_OTHER ACCESS:          0  HIT:          0  MISS:          0

L2C TOTAL     ACCESS:   11753091  HIT:    6272357  MISS:    5480734  HIT %:    53.3677  MISS %:    46.6323   MPKI: 27.4037
L2C LOAD      ACCESS:     983231  HIT:     633376  MISS:     349855  HIT %:    64.4178  MISS %:    35.5822   MPKI: 1.74927
L2C DATA LOAD MPKI: 1.74844
L2C INSTRUCTION LOAD MPKI: 0.000835
L2C RFO       ACCESS:    2682176  HIT:          0  MISS:    2682176  HIT %:          0  MISS %:        100   MPKI: 13.4109
L2C PREFETCH  ACCESS:    4653443  HIT:    2612190  MISS:    2041253  HIT %:    56.1346  MISS %:    43.8654   MPKI: 10.2063
L2C DATA PREFETCH MPKI: 10.2063
L2C INSTRUCTION PREFETCH MPKI: 0
L2C WRITEBACK ACCESS:    2934253  HIT:    2537034  MISS:     397219  HIT %:    86.4627  MISS %:    13.5373   MPKI: 1.98609
L2C LOAD TRANSLATION ACCESS:      72263  HIT:      66304  MISS:       5959  HIT %:    91.7537  MISS %:    8.24627   MPKI: 0.029795
L2C TRANSLATION FROM L1D PREFETCHER ACCESS:     427725  HIT:     423453  MISS:       4272  HIT %:    99.0012  MISS %:   0.998773   MPKI: 0.02136
L2C PREFETCH  REQUESTED:          0  ISSUED:          0  USEFUL:     638201  USELESS:    1413160
L2C USEFUL LOAD PREFETCHES:     638201 PREFETCH ISSUED TO LOWER LEVEL:    2300907  ACCURACY: 27.7369
L2C TIMELY PREFETCHES:     638201 LATE PREFETCHES: 256358 DROPPED PREFETCHES: 0
L2C PREFETCHES SAME FILL-ORIGIN LEVEL: 1713268 DIFFERENT FILL-ORIGIN LEVEL: 0
L2C AVERAGE MISS LATENCY: 1151.68 cycles
L2C RQ	ACCESS:    4168171	FORWARD:          0	MERGED:          0	TO_CACHE:    4168171
L2C WQ	ACCESS:    2936591	FORWARD:          0	MERGED:          0	TO_CACHE:    2936591
L2C PQ	ACCESS:    9556239	FORWARD:          0	MERGED:     200536	TO_CACHE:    9355703

L2C Instructions Evicting Data 166
L2C Translations Evicting Data 10223
L2C Data Evicting Data 5068740
L2C Instructions Evicting Instructions 1
L2C Translations Evicting Instructions 2
L2C Data Evicting Instructions 154
L2C Instructions Evicting Translations 0
L2C Translations Evicting Translations 23
L2C Data Evicting Translations 9594
L2C Dense regions hint from L2: 0
PSCL5 TOTAL     ACCESS:     499909  HIT:     499909  MISS:          0  HIT %:        100  MISS %:          0   MPKI: 0
PSCL5 LOAD TRANSLATION ACCESS:      72251  HIT:      72251  MISS:          0  HIT %:        100  MISS %:          0   MPKI: 0
PSCL5 TRANSLATION FROM L1D PREFETCHER ACCESS:     427658  HIT:     427658  MISS:          0  HIT %:        100  MISS %:          0   MPKI: 0
PSCL5 PREFETCH  REQUESTED:          0  ISSUED:          0  USEFUL:          0  USELESS:          0
PSCL5 USEFUL LOAD PREFETCHES:          0 PREFETCH ISSUED TO LOWER LEVEL:          0  ACCURACY: -nan
PSCL5 TIMELY PREFETCHES:          0 LATE PREFETCHES: 0 DROPPED PREFETCHES: 0
PSCL5 PREFETCHES SAME FILL-ORIGIN LEVEL: 0 DIFFERENT FILL-ORIGIN LEVEL: 0

PSCL4 TOTAL     ACCESS:     499909  HIT:     499908  MISS:          1  HIT %:    99.9998  MISS %: 0.000200036   MPKI: 5e-06
PSCL4 LOAD TRANSLATION ACCESS:      72251  HIT:      72250  MISS:          1  HIT %:    99.9986  MISS %: 0.00138406   MPKI: 5e-06
PSCL4 TRANSLATION FROM L1D PREFETCHER ACCESS:     427658  HIT:     427658  MISS:          0  HIT %:        100  MISS %:          0   MPKI: 0
PSCL4 PREFETCH  REQUESTED:          0  ISSUED:          0  USEFUL:          0  USELESS:          0
PSCL4 USEFUL LOAD PREFETCHES:          0 PREFETCH ISSUED TO LOWER LEVEL:          0  ACCURACY: -nan
PSCL4 TIMELY PREFETCHES:          0 LATE PREFETCHES: 0 DROPPED PREFETCHES: 0
PSCL4 PREFETCHES SAME FILL-ORIGIN LEVEL: 0 DIFFERENT FILL-ORIGIN LEVEL: 0

PSCL3 TOTAL     ACCESS:     499909  HIT:     499908  MISS:          1  HIT %:    99.9998  MISS %: 0.000200036   MPKI: 5e-06
PSCL3 LOAD TRANSLATION ACCESS:      72251  HIT:      72250  MISS:          1  HIT %:    99.9986  MISS %: 0.00138406   MPKI: 5e-06
PSCL3 TRANSLATION FROM L1D PREFETCHER ACCESS:     427658  HIT:     427658  MISS:          0  HIT %:        100  MISS %:          0   MPKI: 0
PSCL3 PREFETCH  REQUESTED:          0  ISSUED:          0  USEFUL:          0  USELESS:          0
PSCL3 USEFUL LOAD PREFETCHES:          0 PREFETCH ISSUED TO LOWER LEVEL:          0  ACCURACY: -nan
PSCL3 TIMELY PREFETCHES:          0 LATE PREFETCHES: 0 DROPPED PREFETCHES: 0
PSCL3 PREFETCHES SAME FILL-ORIGIN LEVEL: 0 DIFFERENT FILL-ORIGIN LEVEL: 0

PSCL2 TOTAL     ACCESS:     499410  HIT:     499244  MISS:        166  HIT %:    99.9668  MISS %:  0.0332392   MPKI: 0.00083
PSCL2 LOAD TRANSLATION ACCESS:      72259  HIT:      72093  MISS:        166  HIT %:    99.7703  MISS %:   0.229729   MPKI: 0.00083
PSCL2 TRANSLATION FROM L1D PREFETCHER ACCESS:     427151  HIT:     427151  MISS:          0  HIT %:        100  MISS %:          0   MPKI: 0
PSCL2 PREFETCH  REQUESTED:          0  ISSUED:          0  USEFUL:          0  USELESS:          0
PSCL2 USEFUL LOAD PREFETCHES:          0 PREFETCH ISSUED TO LOWER LEVEL:          0  ACCURACY: -nan
PSCL2 TIMELY PREFETCHES:          0 LATE PREFETCHES: 0 DROPPED PREFETCHES: 0
PSCL2 PREFETCHES SAME FILL-ORIGIN LEVEL: 0 DIFFERENT FILL-ORIGIN LEVEL: 0

LLC TOTAL     ACCESS:    8013966  HIT:    2828022  MISS:    5185944  HIT %:    35.2887  MISS %:    64.7113   MPKI: 25.9297
LLC LOAD      ACCESS:      93745  HIT:          7  MISS:      93738  HIT %: 0.00746706  MISS %:    99.9925   MPKI: 0.46869
LLC RFO       ACCESS:    2682176  HIT:          0  MISS:    2682176  HIT %:          0  MISS %:        100   MPKI: 13.4109
LLC PREFETCH  ACCESS:    2297363  HIT:        392  MISS:    2296971  HIT %:   0.017063  MISS %:    99.9829   MPKI: 11.4849
LLC WRITEBACK ACCESS:    2930451  HIT:    2827511  MISS:     102940  HIT %:    96.4872  MISS %:    3.51277   MPKI: 0.5147
LLC LOAD TRANSLATION ACCESS:       5959  HIT:         85  MISS:       5874  HIT %:    1.42641  MISS %:    98.5736   MPKI: 0.02937
LLC TRANSLATION FROM L1D PREFETCHER ACCESS:       4272  HIT:         27  MISS:       4245  HIT %:   0.632022  MISS %:     99.368   MPKI: 0.021225
LLC PREFETCH  REQUESTED:          0  ISSUED:          0  USEFUL:        177  USELESS:    9275894
LLC USEFUL LOAD PREFETCHES:        177 PREFETCH ISSUED TO LOWER LEVEL:  537727908  ACCURACY: 3.29163e-05
LLC TIMELY PREFETCHES:        177 LATE PREFETCHES: 0 DROPPED PREFETCHES: 0
LLC PREFETCHES SAME FILL-ORIGIN LEVEL: 0 DIFFERENT FILL-ORIGIN LEVEL: 0
LLC AVERAGE MISS LATENCY: 4531.81 cycles
LLC RQ	ACCESS:   11159532	FORWARD:          0	MERGED:          0	TO_CACHE:   11159532
LLC WQ	ACCESS:   11739799	FORWARD:          0	MERGED:          0	TO_CACHE:   11739799
LLC PQ	ACCESS:    9204834	FORWARD:          0	MERGED:          0	TO_CACHE:    9204834

LLC Dense regions hint to LLC: 0

RAW hits: 7804
Loads Generated: 39277744
Loads sent to L1D: 39269903
Stores Generated: 39973649
Stores sent to L1D: 39973667
Major fault: 0 Minor fault: 89531
Allocated PAGES: 358124

DRAM Statistics
 CHANNEL 0
 RQ ROW_BUFFER_HIT:    9846058  ROW_BUFFER_MISS:   10515908
 DBUS_CONGESTED:       1136
 WQ ROW_BUFFER_HIT:    2571500  ROW_BUFFER_MISS:    9118361  FULL:      44757

 AVG_CONGESTED_CYCLE: 3
 All warmup complete: 5
Channel 0 Bank busy for read cycles: 0
Channel 0 Bank busy for write cycles: 0
Channel 0
Rank 0
0banks busy for read cycles: 477277
0banks busy for write cycles: 7409
1banks busy for read cycles: 22775643
1banks busy for write cycles: 1537962
2banks busy for read cycles: 25602466
2banks busy for write cycles: 1738108
3banks busy for read cycles: 15941496
3banks busy for write cycles: 2482250
4banks busy for read cycles: 6111640
4banks busy for write cycles: 4333523
5banks busy for read cycles: 8637466
5banks busy for write cycles: 2779270
6banks busy for read cycles: 14120051
6banks busy for write cycles: 2712683
7banks busy for read cycles: 38663680
7banks busy for write cycles: 17993406
8banks busy for read cycles: 220488234
8banks busy for write cycles: 234760442

CPU 0 Branch Prediction Accuracy: 92.8472% MPKI: 11.732 Average ROB Occupancy at Mispredict: 22.1854
Branch types
NOT_BRANCH: 167833506 83.5979%
BRANCH_DIRECT_JUMP: 87 4.33347e-05%
BRANCH_INDIRECT: 2 9.962e-07%
BRANCH_CONDITIONAL: 32929213 16.402%
BRANCH_DIRECT_CALL: 30 1.4943e-05%
BRANCH_INDIRECT_CALL: 0 0%
BRANCH_RETURN: 29 1.44449e-05%
BRANCH_OTHER: 0 0%


CPU 1 Branch Prediction Accuracy: 92.839% MPKI: 11.7355 Average ROB Occupancy at Mispredict: 22.1206
Branch types
NOT_BRANCH: 167348059 83.6121%
BRANCH_DIRECT_JUMP: 87 4.34678e-05%
BRANCH_INDIRECT: 2 9.9926e-07%
BRANCH_CONDITIONAL: 32800311 16.388%
BRANCH_DIRECT_CALL: 30 1.49889e-05%
BRANCH_INDIRECT_CALL: 0 0%
BRANCH_RETURN: 29 1.44893e-05%
BRANCH_OTHER: 0 0%


CPU 2 Branch Prediction Accuracy: 92.8349% MPKI: 11.7395 Average ROB Occupancy at Mispredict: 22.0915
Branch types
NOT_BRANCH: 167230995 83.6155%
BRANCH_DIRECT_JUMP: 87 4.35e-05%
BRANCH_INDIRECT: 2 1e-06%
BRANCH_CONDITIONAL: 32768865 16.3844%
BRANCH_DIRECT_CALL: 30 1.5e-05%
BRANCH_INDIRECT_CALL: 0 0%
BRANCH_RETURN: 29 1.45e-05%
BRANCH_OTHER: 0 0%


CPU 3 Branch Prediction Accuracy: 92.8407% MPKI: 11.7336 Average ROB Occupancy at Mispredict: 22.1074
Branch types
NOT_BRANCH: 167388463 83.6105%
BRANCH_DIRECT_JUMP: 87 4.34565e-05%
BRANCH_INDIRECT: 2 9.99e-07%
BRANCH_CONDITIONAL: 32811213 16.3892%
BRANCH_DIRECT_CALL: 30 1.4985e-05%
BRANCH_INDIRECT_CALL: 0 0%
BRANCH_RETURN: 29 1.44855e-05%
BRANCH_OTHER: 0 0%

DRAM PAGES: 1048576
Allocated PAGES: 358124
