
*** ChampSim Multicore Out-of-Order Simulator ***

Warmup Instructions: 50000000
Simulation Instructions: 200000000
Number of CPUs: 4
LLC sets: 8192
LLC ways: 16
Off-chip DRAM Size: 4096 MB Channels: 1 Width: 64-bit Data Rate: 6400 MT/s
CPU 0 runs ./traces/ligra/ligra_Components-Shortcut.com-lj.ungraph.gcc_6.3.0_O3.drop_22000M.length_250M.champsimtrace.xz
.xz
CPU 1 runs ./traces/ligra/ligra_MIS.com-lj.ungraph.gcc_6.3.0_O3.drop_21250M.length_250M.champsimtrace.xz
.xz
CPU 2 runs ./traces/spec/481.wrf-816B.champsimtrace.xz
.xz
CPU 3 runs ./traces/ligra/ligra_BFS.com-lj.ungraph.gcc_6.3.0_O3.drop_500M.length_250M.champsimtrace.xz
.xz
BTB has LRU replacement policy
ITLB has LRU replacement policy
DTLB has LRU replacement policy
STLB has LRU replacement policy
L1I has LRU replacement policy
History Sets: 8
History Ways: 16
BERTI Size: 16
BERTI Stride Size: 8
L1D has LRU replacement policy
Initialize SRRIP state for L2C
Initialize DRRIP state for LLC
BTB has LRU replacement policy
ITLB has LRU replacement policy
DTLB has LRU replacement policy
STLB has LRU replacement policy
L1I has LRU replacement policy
History Sets: 8
History Ways: 16
BERTI Size: 16
BERTI Stride Size: 8
L1D has LRU replacement policy
Initialize SRRIP state for L2C
Initialize DRRIP state for LLC
BTB has LRU replacement policy
ITLB has LRU replacement policy
DTLB has LRU replacement policy
STLB has LRU replacement policy
L1I has LRU replacement policy
History Sets: 8
History Ways: 16
BERTI Size: 16
BERTI Stride Size: 8
L1D has LRU replacement policy
Initialize SRRIP state for L2C
Initialize DRRIP state for LLC
BTB has LRU replacement policy
ITLB has LRU replacement policy
DTLB has LRU replacement policy
STLB has LRU replacement policy
L1I has LRU replacement policy
History Sets: 8
History Ways: 16
BERTI Size: 16
BERTI Stride Size: 8
L1D has LRU replacement policy
Initialize SRRIP state for L2C
Initialize DRRIP state for LLC
Heartbeat CPU 1 instructions: 10000001 cycles: 2941158 heartbeat IPC: 3.40002 cumulative IPC: 3.40002 (Simulation time: 0 hr 8 min 16 sec) 
Heartbeat CPU 2 instructions: 10000000 cycles: 3194608 heartbeat IPC: 3.13027 cumulative IPC: 3.13027 (Simulation time: 0 hr 8 min 49 sec) 
Heartbeat CPU 3 instructions: 10000002 cycles: 3333348 heartbeat IPC: 2.99999 cumulative IPC: 2.99999 (Simulation time: 0 hr 9 min 3 sec) 
Heartbeat CPU 0 instructions: 10000002 cycles: 3438584 heartbeat IPC: 2.90817 cumulative IPC: 2.90817 (Simulation time: 0 hr 9 min 14 sec) 
Heartbeat CPU 1 instructions: 20000001 cycles: 5882332 heartbeat IPC: 3.4 cumulative IPC: 3.40001 (Simulation time: 0 hr 13 min 19 sec) 
Heartbeat CPU 2 instructions: 20000001 cycles: 6207764 heartbeat IPC: 3.31878 cumulative IPC: 3.22177 (Simulation time: 0 hr 13 min 48 sec) 
Heartbeat CPU 3 instructions: 20000000 cycles: 6666681 heartbeat IPC: 3 cumulative IPC: 2.99999 (Simulation time: 0 hr 14 min 30 sec) 
Heartbeat CPU 0 instructions: 20000002 cycles: 6855435 heartbeat IPC: 2.92667 cumulative IPC: 2.91739 (Simulation time: 0 hr 14 min 46 sec) 
Heartbeat CPU 1 instructions: 30000000 cycles: 8823508 heartbeat IPC: 3.4 cumulative IPC: 3.40001 (Simulation time: 0 hr 17 min 31 sec) 
Heartbeat CPU 2 instructions: 30000002 cycles: 9147441 heartbeat IPC: 3.40173 cumulative IPC: 3.27961 (Simulation time: 0 hr 17 min 57 sec) 
Heartbeat CPU 3 instructions: 30000001 cycles: 10000015 heartbeat IPC: 3 cumulative IPC: 3 (Simulation time: 0 hr 19 min 8 sec) 
Heartbeat CPU 0 instructions: 30000001 cycles: 10262685 heartbeat IPC: 2.93492 cumulative IPC: 2.92321 (Simulation time: 0 hr 19 min 31 sec) 
Heartbeat CPU 1 instructions: 40000003 cycles: 11764685 heartbeat IPC: 3.4 cumulative IPC: 3.40001 (Simulation time: 0 hr 21 min 32 sec) 
Heartbeat CPU 2 instructions: 40000002 cycles: 12067490 heartbeat IPC: 3.4246 cumulative IPC: 3.31469 (Simulation time: 0 hr 21 min 55 sec) 
Heartbeat CPU 3 instructions: 40000001 cycles: 13333347 heartbeat IPC: 3 cumulative IPC: 3 (Simulation time: 0 hr 23 min 16 sec) 
Heartbeat CPU 0 instructions: 40000003 cycles: 13662481 heartbeat IPC: 2.94135 cumulative IPC: 2.92773 (Simulation time: 0 hr 23 min 37 sec) 
Heartbeat CPU 2 instructions: 50000002 cycles: 14985615 heartbeat IPC: 3.42686 cumulative IPC: 3.33653 (Simulation time: 0 hr 25 min 3 sec) 
Heartbeat CPU 1 instructions: 50000001 cycles: 15435984 heartbeat IPC: 2.72383 cumulative IPC: 3.23918 (Simulation time: 0 hr 25 min 31 sec) 
Heartbeat CPU 3 instructions: 50000000 cycles: 16666681 heartbeat IPC: 3 cumulative IPC: 3 (Simulation time: 0 hr 26 min 40 sec) 
Heartbeat CPU 0 instructions: 50000000 cycles: 17075611 heartbeat IPC: 2.92986 cumulative IPC: 2.92815 (Simulation time: 0 hr 27 min 4 sec) 

Warmup complete CPU 0 instructions: 50000004 cycles: 17075612 (Simulation time: 0 hr 27 min 4 sec) 
Warmup complete CPU 1 instructions: 54102117 cycles: 17075611 (Simulation time: 0 hr 27 min 4 sec) 
Warmup complete CPU 2 instructions: 57261307 cycles: 17075611 (Simulation time: 0 hr 27 min 4 sec) 
Warmup complete CPU 3 instructions: 51200538 cycles: 17075611 (Simulation time: 0 hr 27 min 4 sec) 

Heartbeat CPU 2 instructions: 60000003 cycles: 19081888 heartbeat IPC: 2.44124 cumulative IPC: 1.36506 (Simulation time: 0 hr 27 min 58 sec) 
Heartbeat CPU 1 instructions: 60000001 cycles: 22692693 heartbeat IPC: 1.37804 cumulative IPC: 1.04999 (Simulation time: 0 hr 29 min 33 sec) 
Heartbeat CPU 3 instructions: 60000001 cycles: 24623165 heartbeat IPC: 1.25684 cumulative IPC: 1.16587 (Simulation time: 0 hr 30 min 23 sec) 
Heartbeat CPU 2 instructions: 70000000 cycles: 26009449 heartbeat IPC: 1.44351 cumulative IPC: 1.42589 (Simulation time: 0 hr 31 min 1 sec) 
Heartbeat CPU 2 instructions: 80000000 cycles: 32120636 heartbeat IPC: 1.63634 cumulative IPC: 1.51138 (Simulation time: 0 hr 33 min 45 sec) 
Heartbeat CPU 1 instructions: 70000000 cycles: 32208358 heartbeat IPC: 1.0509 cumulative IPC: 1.05056 (Simulation time: 0 hr 33 min 48 sec) 
Heartbeat CPU 3 instructions: 70000001 cycles: 33251591 heartbeat IPC: 1.15896 cumulative IPC: 1.16218 (Simulation time: 0 hr 34 min 19 sec) 
Heartbeat CPU 2 instructions: 90000002 cycles: 37531117 heartbeat IPC: 1.84826 cumulative IPC: 1.60048 (Simulation time: 0 hr 36 min 23 sec) 
Heartbeat CPU 0 instructions: 60000000 cycles: 38252808 heartbeat IPC: 0.472206 cumulative IPC: 0.472206 (Simulation time: 0 hr 36 min 44 sec) 
Heartbeat CPU 1 instructions: 80000000 cycles: 41744238 heartbeat IPC: 1.04867 cumulative IPC: 1.04983 (Simulation time: 0 hr 38 min 8 sec) 
Heartbeat CPU 3 instructions: 80000002 cycles: 41874911 heartbeat IPC: 1.15965 cumulative IPC: 1.1613 (Simulation time: 0 hr 38 min 11 sec) 
Heartbeat CPU 2 instructions: 100000001 cycles: 46728872 heartbeat IPC: 1.08722 cumulative IPC: 1.44128 (Simulation time: 0 hr 39 min 54 sec) 
Heartbeat CPU 3 instructions: 90000002 cycles: 50544449 heartbeat IPC: 1.15346 cumulative IPC: 1.15927 (Simulation time: 0 hr 41 min 29 sec) 
Heartbeat CPU 1 instructions: 90000003 cycles: 51863578 heartbeat IPC: 0.988207 cumulative IPC: 1.03191 (Simulation time: 0 hr 42 min 0 sec) 
Heartbeat CPU 2 instructions: 110000000 cycles: 53641071 heartbeat IPC: 1.44672 cumulative IPC: 1.44231 (Simulation time: 0 hr 42 min 42 sec) 
Heartbeat CPU 3 instructions: 100000000 cycles: 59164521 heartbeat IPC: 1.16008 cumulative IPC: 1.15944 (Simulation time: 0 hr 44 min 53 sec) 
Heartbeat CPU 2 instructions: 120000001 cycles: 61529222 heartbeat IPC: 1.26772 cumulative IPC: 1.41133 (Simulation time: 0 hr 45 min 48 sec) 
Heartbeat CPU 1 instructions: 100000001 cycles: 62485488 heartbeat IPC: 0.94145 cumulative IPC: 1.01075 (Simulation time: 0 hr 46 min 10 sec) 
Heartbeat CPU 3 instructions: 110000000 cycles: 67776673 heartbeat IPC: 1.16115 cumulative IPC: 1.15973 (Simulation time: 0 hr 48 min 12 sec) 
Heartbeat CPU 2 instructions: 130000002 cycles: 69091872 heartbeat IPC: 1.32229 cumulative IPC: 1.39838 (Simulation time: 0 hr 48 min 41 sec) 
Heartbeat CPU 1 instructions: 110000000 cycles: 74531300 heartbeat IPC: 0.830164 cumulative IPC: 0.972887 (Simulation time: 0 hr 50 min 29 sec) 
Heartbeat CPU 3 instructions: 120000001 cycles: 76390576 heartbeat IPC: 1.16091 cumulative IPC: 1.1599 (Simulation time: 0 hr 51 min 2 sec) 
Heartbeat CPU 2 instructions: 140000003 cycles: 77626465 heartbeat IPC: 1.1717 cumulative IPC: 1.36643 (Simulation time: 0 hr 51 min 29 sec) 
Heartbeat CPU 0 instructions: 70000003 cycles: 79787453 heartbeat IPC: 0.240763 cumulative IPC: 0.318919 (Simulation time: 0 hr 52 min 21 sec) 
Heartbeat CPU 2 instructions: 150000000 cycles: 83503170 heartbeat IPC: 1.70163 cumulative IPC: 1.39609 (Simulation time: 0 hr 53 min 43 sec) 
Heartbeat CPU 3 instructions: 130000000 cycles: 85075629 heartbeat IPC: 1.1514 cumulative IPC: 1.15882 (Simulation time: 0 hr 54 min 19 sec) 
Heartbeat CPU 1 instructions: 120000001 cycles: 87666369 heartbeat IPC: 0.761321 cumulative IPC: 0.93352 (Simulation time: 0 hr 55 min 8 sec) 
Heartbeat CPU 2 instructions: 160000001 cycles: 91189609 heartbeat IPC: 1.30099 cumulative IPC: 1.38623 (Simulation time: 0 hr 56 min 18 sec) 
Heartbeat CPU 3 instructions: 140000003 cycles: 93738835 heartbeat IPC: 1.15431 cumulative IPC: 1.15831 (Simulation time: 0 hr 57 min 18 sec) 
Heartbeat CPU 2 instructions: 170000001 cycles: 97992413 heartbeat IPC: 1.46998 cumulative IPC: 1.39327 (Simulation time: 0 hr 59 min 1 sec) 
Heartbeat CPU 1 instructions: 130000000 cycles: 98741978 heartbeat IPC: 0.902885 cumulative IPC: 0.929365 (Simulation time: 0 hr 59 min 19 sec) 
Heartbeat CPU 3 instructions: 150000000 cycles: 102414841 heartbeat IPC: 1.1526 cumulative IPC: 1.15773 (Simulation time: 1 hr 0 min 41 sec) 
Heartbeat CPU 2 instructions: 180000003 cycles: 106280721 heartbeat IPC: 1.20652 cumulative IPC: 1.37592 (Simulation time: 1 hr 2 min 2 sec) 
Heartbeat CPU 1 instructions: 140000000 cycles: 110215671 heartbeat IPC: 0.871559 cumulative IPC: 0.922244 (Simulation time: 1 hr 3 min 41 sec) 
Heartbeat CPU 3 instructions: 160000000 cycles: 111167532 heartbeat IPC: 1.14251 cumulative IPC: 1.15631 (Simulation time: 1 hr 4 min 5 sec) 
Heartbeat CPU 0 instructions: 80000000 cycles: 111237904 heartbeat IPC: 0.31796 cumulative IPC: 0.318599 (Simulation time: 1 hr 4 min 7 sec) 
Heartbeat CPU 2 instructions: 190000002 cycles: 113671309 heartbeat IPC: 1.35307 cumulative IPC: 1.37417 (Simulation time: 1 hr 5 min 8 sec) 
Heartbeat CPU 3 instructions: 170000003 cycles: 119945034 heartbeat IPC: 1.13928 cumulative IPC: 1.15486 (Simulation time: 1 hr 7 min 49 sec) 
Heartbeat CPU 2 instructions: 200000000 cycles: 120944712 heartbeat IPC: 1.37487 cumulative IPC: 1.37422 (Simulation time: 1 hr 8 min 14 sec) 
Heartbeat CPU 1 instructions: 150000000 cycles: 121027584 heartbeat IPC: 0.924906 cumulative IPC: 0.922521 (Simulation time: 1 hr 8 min 16 sec) 
Heartbeat CPU 2 instructions: 210000001 cycles: 128238818 heartbeat IPC: 1.37097 cumulative IPC: 1.374 (Simulation time: 1 hr 11 min 21 sec) 
Heartbeat CPU 3 instructions: 180000002 cycles: 128523130 heartbeat IPC: 1.16576 cumulative IPC: 1.1557 (Simulation time: 1 hr 11 min 29 sec) 
Heartbeat CPU 1 instructions: 160000003 cycles: 131796508 heartbeat IPC: 0.928598 cumulative IPC: 0.923092 (Simulation time: 1 hr 12 min 57 sec) 
Heartbeat CPU 0 instructions: 90000002 cycles: 135156356 heartbeat IPC: 0.418087 cumulative IPC: 0.338751 (Simulation time: 1 hr 14 min 23 sec) 
Heartbeat CPU 2 instructions: 220000000 cycles: 135535987 heartbeat IPC: 1.37039 cumulative IPC: 1.37378 (Simulation time: 1 hr 14 min 31 sec) 
Heartbeat CPU 3 instructions: 190000002 cycles: 137069399 heartbeat IPC: 1.1701 cumulative IPC: 1.15672 (Simulation time: 1 hr 15 min 11 sec) 
Heartbeat CPU 1 instructions: 170000000 cycles: 142688355 heartbeat IPC: 0.918118 cumulative IPC: 0.92266 (Simulation time: 1 hr 17 min 38 sec) 
Heartbeat CPU 2 instructions: 230000000 cycles: 142792656 heartbeat IPC: 1.37804 cumulative IPC: 1.37403 (Simulation time: 1 hr 17 min 40 sec) 
Heartbeat CPU 3 instructions: 200000001 cycles: 145597619 heartbeat IPC: 1.17258 cumulative IPC: 1.15777 (Simulation time: 1 hr 18 min 52 sec) 
Heartbeat CPU 2 instructions: 240000000 cycles: 150047960 heartbeat IPC: 1.3783 cumulative IPC: 1.37426 (Simulation time: 1 hr 20 min 45 sec) 
Heartbeat CPU 1 instructions: 180000000 cycles: 153706347 heartbeat IPC: 0.907606 cumulative IPC: 0.921446 (Simulation time: 1 hr 22 min 17 sec) 
Heartbeat CPU 3 instructions: 210000001 cycles: 154108853 heartbeat IPC: 1.17492 cumulative IPC: 1.15884 (Simulation time: 1 hr 22 min 26 sec) 
Heartbeat CPU 2 instructions: 250000001 cycles: 156936564 heartbeat IPC: 1.45167 cumulative IPC: 1.37807 (Simulation time: 1 hr 23 min 36 sec) 
Heartbeat CPU 0 instructions: 100000000 cycles: 160623476 heartbeat IPC: 0.392663 cumulative IPC: 0.348316 (Simulation time: 1 hr 25 min 10 sec) 
Finished CPU 2 instructions: 200000000 cycles: 144865299 cumulative IPC: 1.38059 (Simulation time: 1 hr 25 min 45 sec) 
Heartbeat CPU 3 instructions: 220000000 cycles: 162625762 heartbeat IPC: 1.17413 cumulative IPC: 1.15973 (Simulation time: 1 hr 26 min 2 sec) 
Heartbeat CPU 2 instructions: 260000000 cycles: 163807067 heartbeat IPC: 1.4555 cumulative IPC: 1.3817 (Simulation time: 1 hr 26 min 33 sec) 
Heartbeat CPU 1 instructions: 190000000 cycles: 164673288 heartbeat IPC: 0.911831 cumulative IPC: 0.920732 (Simulation time: 1 hr 26 min 54 sec) 
Heartbeat CPU 2 instructions: 270000000 cycles: 170737359 heartbeat IPC: 1.44294 cumulative IPC: 1.38446 (Simulation time: 1 hr 29 min 25 sec) 
Heartbeat CPU 3 instructions: 230000000 cycles: 171355601 heartbeat IPC: 1.1455 cumulative IPC: 1.15893 (Simulation time: 1 hr 29 min 41 sec) 
Heartbeat CPU 1 instructions: 200000000 cycles: 175898467 heartbeat IPC: 0.890854 cumulative IPC: 0.91862 (Simulation time: 1 hr 31 min 34 sec) 
Heartbeat CPU 2 instructions: 280000002 cycles: 177601662 heartbeat IPC: 1.45681 cumulative IPC: 1.38755 (Simulation time: 1 hr 32 min 16 sec) 
Heartbeat CPU 3 instructions: 240000002 cycles: 180052870 heartbeat IPC: 1.14979 cumulative IPC: 1.15844 (Simulation time: 1 hr 33 min 14 sec) 
Heartbeat CPU 2 instructions: 290000001 cycles: 186368943 heartbeat IPC: 1.1406 cumulative IPC: 1.37477 (Simulation time: 1 hr 35 min 51 sec) 
Heartbeat CPU 1 instructions: 210000000 cycles: 187414090 heartbeat IPC: 0.868385 cumulative IPC: 0.915224 (Simulation time: 1 hr 36 min 17 sec) 
Heartbeat CPU 0 instructions: 110000000 cycles: 188286343 heartbeat IPC: 0.361495 cumulative IPC: 0.350445 (Simulation time: 1 hr 36 min 39 sec) 
*** Reached end of trace for Core: 3 Repeating trace: ./traces/ligra/ligra_BFS.com-lj.ungraph.gcc_6.3.0_O3.drop_500M.length_250M.champsimtrace.xz
Heartbeat CPU 3 instructions: 250000000 cycles: 188641131 heartbeat IPC: 1.16438 cumulative IPC: 1.15874 (Simulation time: 1 hr 36 min 49 sec) 
Finished CPU 3 instructions: 200000001 cycles: 172573502 cumulative IPC: 1.15893 (Simulation time: 1 hr 37 min 16 sec) 
Heartbeat CPU 2 instructions: 300000001 cycles: 194748051 heartbeat IPC: 1.19344 cumulative IPC: 1.36621 (Simulation time: 1 hr 39 min 24 sec) 
Heartbeat CPU 3 instructions: 260000000 cycles: 197102849 heartbeat IPC: 1.18179 cumulative IPC: 1.15982 (Simulation time: 1 hr 40 min 24 sec) 
Heartbeat CPU 1 instructions: 220000000 cycles: 199155241 heartbeat IPC: 0.851705 cumulative IPC: 0.911128 (Simulation time: 1 hr 41 min 15 sec) 
Heartbeat CPU 2 instructions: 310000003 cycles: 203124662 heartbeat IPC: 1.1938 cumulative IPC: 1.35845 (Simulation time: 1 hr 42 min 57 sec) 
Heartbeat CPU 3 instructions: 270000000 cycles: 205584181 heartbeat IPC: 1.17906 cumulative IPC: 1.16069 (Simulation time: 1 hr 44 min 2 sec) 
Heartbeat CPU 1 instructions: 230000002 cycles: 211068038 heartbeat IPC: 0.839434 cumulative IPC: 0.906726 (Simulation time: 1 hr 46 min 22 sec) 
Heartbeat CPU 2 instructions: 320000002 cycles: 211468643 heartbeat IPC: 1.19847 cumulative IPC: 1.35158 (Simulation time: 1 hr 46 min 31 sec) 
Heartbeat CPU 3 instructions: 280000000 cycles: 214076238 heartbeat IPC: 1.17757 cumulative IPC: 1.16141 (Simulation time: 1 hr 47 min 32 sec) 
Heartbeat CPU 2 instructions: 330000000 cycles: 218819263 heartbeat IPC: 1.36043 cumulative IPC: 1.35191 (Simulation time: 1 hr 49 min 21 sec) 
Heartbeat CPU 0 instructions: 120000000 cycles: 221732384 heartbeat IPC: 0.298989 cumulative IPC: 0.342036 (Simulation time: 1 hr 50 min 33 sec) 
Heartbeat CPU 3 instructions: 290000000 cycles: 222535086 heartbeat IPC: 1.18219 cumulative IPC: 1.16227 (Simulation time: 1 hr 50 min 53 sec) 
Heartbeat CPU 1 instructions: 240000003 cycles: 223909462 heartbeat IPC: 0.77873 cumulative IPC: 0.898779 (Simulation time: 1 hr 51 min 27 sec) 
Heartbeat CPU 2 instructions: 340000000 cycles: 224858282 heartbeat IPC: 1.6559 cumulative IPC: 1.36074 (Simulation time: 1 hr 51 min 46 sec) 
Heartbeat CPU 2 instructions: 350000000 cycles: 230884842 heartbeat IPC: 1.65932 cumulative IPC: 1.36916 (Simulation time: 1 hr 54 min 5 sec) 
Heartbeat CPU 3 instructions: 300000001 cycles: 231040387 heartbeat IPC: 1.17574 cumulative IPC: 1.16281 (Simulation time: 1 hr 54 min 9 sec) 
*** Reached end of trace for Core: 1 Repeating trace: ./traces/ligra/ligra_MIS.com-lj.ungraph.gcc_6.3.0_O3.drop_21250M.length_250M.champsimtrace.xz
Heartbeat CPU 1 instructions: 250000002 cycles: 237217893 heartbeat IPC: 0.751403 cumulative IPC: 0.889869 (Simulation time: 1 hr 56 min 4 sec) 
Heartbeat CPU 3 instructions: 310000000 cycles: 239561120 heartbeat IPC: 1.17361 cumulative IPC: 1.16322 (Simulation time: 1 hr 56 min 35 sec) 
Finished CPU 1 instructions: 200000002 cycles: 230128980 cumulative IPC: 0.869078 (Simulation time: 1 hr 58 min 21 sec) 
Heartbeat CPU 3 instructions: 320000001 cycles: 248109345 heartbeat IPC: 1.16983 cumulative IPC: 1.16346 (Simulation time: 1 hr 58 min 33 sec) 
Heartbeat CPU 2 instructions: 360000003 cycles: 250077074 heartbeat IPC: 0.521044 cumulative IPC: 1.2993 (Simulation time: 1 hr 58 min 58 sec) 
Heartbeat CPU 3 instructions: 330000000 cycles: 256664619 heartbeat IPC: 1.16887 cumulative IPC: 1.16366 (Simulation time: 2 hr 0 min 27 sec) 
Heartbeat CPU 1 instructions: 260000003 cycles: 262067563 heartbeat IPC: 0.40242 cumulative IPC: 0.840427 (Simulation time: 2 hr 1 min 43 sec) 
Heartbeat CPU 3 instructions: 340000002 cycles: 265241401 heartbeat IPC: 1.16594 cumulative IPC: 1.16374 (Simulation time: 2 hr 2 min 29 sec) 
Heartbeat CPU 2 instructions: 370000002 cycles: 273734827 heartbeat IPC: 0.422694 cumulative IPC: 1.2185 (Simulation time: 2 hr 4 min 48 sec) 
Heartbeat CPU 3 instructions: 350000002 cycles: 273756184 heartbeat IPC: 1.17443 cumulative IPC: 1.16409 (Simulation time: 2 hr 4 min 48 sec) 
Heartbeat CPU 3 instructions: 360000000 cycles: 282244307 heartbeat IPC: 1.17812 cumulative IPC: 1.16454 (Simulation time: 2 hr 7 min 18 sec) 
Heartbeat CPU 1 instructions: 270000001 cycles: 285992903 heartbeat IPC: 0.417967 cumulative IPC: 0.802841 (Simulation time: 2 hr 8 min 26 sec) 
Heartbeat CPU 2 instructions: 380000001 cycles: 286612305 heartbeat IPC: 0.77655 cumulative IPC: 1.19738 (Simulation time: 2 hr 8 min 38 sec) 
Heartbeat CPU 3 instructions: 370000002 cycles: 290720268 heartbeat IPC: 1.17981 cumulative IPC: 1.16501 (Simulation time: 2 hr 9 min 43 sec) 
Heartbeat CPU 3 instructions: 380000002 cycles: 299256152 heartbeat IPC: 1.17152 cumulative IPC: 1.16521 (Simulation time: 2 hr 11 min 58 sec) 
Heartbeat CPU 2 instructions: 390000001 cycles: 299352122 heartbeat IPC: 0.784941 cumulative IPC: 1.17877 (Simulation time: 2 hr 12 min 0 sec) 
Heartbeat CPU 3 instructions: 390000002 cycles: 307836853 heartbeat IPC: 1.16541 cumulative IPC: 1.16522 (Simulation time: 2 hr 14 min 35 sec) 
Heartbeat CPU 1 instructions: 280000000 cycles: 308824069 heartbeat IPC: 0.437998 cumulative IPC: 0.77429 (Simulation time: 2 hr 14 min 53 sec) 
Heartbeat CPU 2 instructions: 400000003 cycles: 312151157 heartbeat IPC: 0.781309 cumulative IPC: 1.16153 (Simulation time: 2 hr 15 min 54 sec) 
Heartbeat CPU 3 instructions: 400000000 cycles: 316437872 heartbeat IPC: 1.16265 cumulative IPC: 1.16514 (Simulation time: 2 hr 17 min 13 sec) 
Heartbeat CPU 2 instructions: 410000002 cycles: 324940969 heartbeat IPC: 0.781872 cumulative IPC: 1.14576 (Simulation time: 2 hr 19 min 48 sec) 
Heartbeat CPU 3 instructions: 410000000 cycles: 325113466 heartbeat IPC: 1.15266 cumulative IPC: 1.16479 (Simulation time: 2 hr 19 min 50 sec) 
Heartbeat CPU 0 instructions: 130000002 cycles: 330585367 heartbeat IPC: 0.091867 cumulative IPC: 0.255175 (Simulation time: 2 hr 21 min 26 sec) 
Heartbeat CPU 1 instructions: 290000002 cycles: 331542375 heartbeat IPC: 0.440174 cumulative IPC: 0.750152 (Simulation time: 2 hr 21 min 42 sec) 
Heartbeat CPU 3 instructions: 420000001 cycles: 333842755 heartbeat IPC: 1.14557 cumulative IPC: 1.16426 (Simulation time: 2 hr 22 min 15 sec) 
Heartbeat CPU 2 instructions: 420000001 cycles: 336986205 heartbeat IPC: 0.830204 cumulative IPC: 1.13388 (Simulation time: 2 hr 23 min 10 sec) 
Heartbeat CPU 3 instructions: 430000001 cycles: 342359698 heartbeat IPC: 1.17413 cumulative IPC: 1.16452 (Simulation time: 2 hr 24 min 51 sec) 
Heartbeat CPU 2 instructions: 430000002 cycles: 345387888 heartbeat IPC: 1.19024 cumulative IPC: 1.13532 (Simulation time: 2 hr 25 min 52 sec) 
Heartbeat CPU 3 instructions: 440000000 cycles: 350849839 heartbeat IPC: 1.17784 cumulative IPC: 1.16486 (Simulation time: 2 hr 27 min 48 sec) 
Heartbeat CPU 2 instructions: 440000000 cycles: 353305022 heartbeat IPC: 1.26308 cumulative IPC: 1.13833 (Simulation time: 2 hr 28 min 40 sec) 
Heartbeat CPU 1 instructions: 300000000 cycles: 355665545 heartbeat IPC: 0.414539 cumulative IPC: 0.726241 (Simulation time: 2 hr 29 min 35 sec) 
Heartbeat CPU 3 instructions: 450000003 cycles: 359321744 heartbeat IPC: 1.18037 cumulative IPC: 1.16524 (Simulation time: 2 hr 30 min 59 sec) 
Heartbeat CPU 2 instructions: 450000000 cycles: 360955559 heartbeat IPC: 1.3071 cumulative IPC: 1.14208 (Simulation time: 2 hr 31 min 37 sec) 
Heartbeat CPU 1 instructions: 310000001 cycles: 365461247 heartbeat IPC: 1.02086 cumulative IPC: 0.734525 (Simulation time: 2 hr 33 min 24 sec) 
Heartbeat CPU 3 instructions: 460000000 cycles: 367772668 heartbeat IPC: 1.1833 cumulative IPC: 1.16568 (Simulation time: 2 hr 34 min 15 sec) 
Heartbeat CPU 2 instructions: 460000000 cycles: 368754692 heartbeat IPC: 1.28219 cumulative IPC: 1.14519 (Simulation time: 2 hr 34 min 38 sec) 
Heartbeat CPU 2 instructions: 470000002 cycles: 374596988 heartbeat IPC: 1.71166 cumulative IPC: 1.15444 (Simulation time: 2 hr 36 min 58 sec) 
Heartbeat CPU 1 instructions: 320000000 cycles: 375289027 heartbeat IPC: 1.01752 cumulative IPC: 0.742289 (Simulation time: 2 hr 37 min 13 sec) 
Heartbeat CPU 3 instructions: 470000000 cycles: 376227769 heartbeat IPC: 1.18272 cumulative IPC: 1.16608 (Simulation time: 2 hr 37 min 33 sec) 
Heartbeat CPU 2 instructions: 480000001 cycles: 382904103 heartbeat IPC: 1.20379 cumulative IPC: 1.15557 (Simulation time: 2 hr 39 min 53 sec) 
Heartbeat CPU 1 instructions: 330000000 cycles: 384681021 heartbeat IPC: 1.06474 cumulative IPC: 0.750527 (Simulation time: 2 hr 40 min 35 sec) 
Heartbeat CPU 3 instructions: 480000002 cycles: 384887459 heartbeat IPC: 1.15478 cumulative IPC: 1.16581 (Simulation time: 2 hr 40 min 40 sec) 
Heartbeat CPU 0 instructions: 140000001 cycles: 385345532 heartbeat IPC: 0.182614 cumulative IPC: 0.244386 (Simulation time: 2 hr 40 min 52 sec) 
Heartbeat CPU 2 instructions: 490000000 cycles: 390486558 heartbeat IPC: 1.31883 cumulative IPC: 1.15888 (Simulation time: 2 hr 42 min 57 sec) 
Heartbeat CPU 3 instructions: 490000001 cycles: 393512443 heartbeat IPC: 1.15942 cumulative IPC: 1.16567 (Simulation time: 2 hr 44 min 8 sec) 
Heartbeat CPU 1 instructions: 340000003 cycles: 393917770 heartbeat IPC: 1.08263 cumulative IPC: 0.758667 (Simulation time: 2 hr 44 min 19 sec) 
Heartbeat CPU 2 instructions: 500000003 cycles: 397814364 heartbeat IPC: 1.36467 cumulative IPC: 1.16284 (Simulation time: 2 hr 45 min 56 sec) 
*** Reached end of trace for Core: 3 Repeating trace: ./traces/ligra/ligra_BFS.com-lj.ungraph.gcc_6.3.0_O3.drop_500M.length_250M.champsimtrace.xz
Heartbeat CPU 3 instructions: 500000000 cycles: 402029488 heartbeat IPC: 1.17412 cumulative IPC: 1.16585 (Simulation time: 2 hr 47 min 42 sec) 
Heartbeat CPU 1 instructions: 350000001 cycles: 403349796 heartbeat IPC: 1.06022 cumulative IPC: 0.766031 (Simulation time: 2 hr 48 min 15 sec) 
Heartbeat CPU 2 instructions: 510000002 cycles: 405160059 heartbeat IPC: 1.36134 cumulative IPC: 1.1666 (Simulation time: 2 hr 49 min 1 sec) 
Heartbeat CPU 3 instructions: 510000000 cycles: 410491054 heartbeat IPC: 1.18181 cumulative IPC: 1.1662 (Simulation time: 2 hr 51 min 14 sec) 
Heartbeat CPU 2 instructions: 520000002 cycles: 412500630 heartbeat IPC: 1.36229 cumulative IPC: 1.17023 (Simulation time: 2 hr 52 min 0 sec) 
Heartbeat CPU 1 instructions: 360000002 cycles: 413260469 heartbeat IPC: 1.00901 cumulative IPC: 0.772109 (Simulation time: 2 hr 52 min 19 sec) 
Heartbeat CPU 3 instructions: 520000001 cycles: 418972961 heartbeat IPC: 1.17898 cumulative IPC: 1.16647 (Simulation time: 2 hr 54 min 32 sec) 
Heartbeat CPU 2 instructions: 530000002 cycles: 419804987 heartbeat IPC: 1.36905 cumulative IPC: 1.17384 (Simulation time: 2 hr 54 min 53 sec) 
Heartbeat CPU 0 instructions: 150000000 cycles: 421513388 heartbeat IPC: 0.276489 cumulative IPC: 0.247257 (Simulation time: 2 hr 55 min 31 sec) 
Heartbeat CPU 1 instructions: 370000001 cycles: 424259114 heartbeat IPC: 0.909203 cumulative IPC: 0.775812 (Simulation time: 2 hr 56 min 38 sec) 
Heartbeat CPU 2 instructions: 540000001 cycles: 427092529 heartbeat IPC: 1.3722 cumulative IPC: 1.17736 (Simulation time: 2 hr 57 min 46 sec) 
Heartbeat CPU 3 instructions: 530000002 cycles: 427464202 heartbeat IPC: 1.17768 cumulative IPC: 1.1667 (Simulation time: 2 hr 57 min 55 sec) 
Heartbeat CPU 2 instructions: 550000000 cycles: 434065138 heartbeat IPC: 1.43418 cumulative IPC: 1.18166 (Simulation time: 3 hr 0 min 34 sec) 
Heartbeat CPU 1 instructions: 380000000 cycles: 434743603 heartbeat IPC: 0.95379 cumulative IPC: 0.78028 (Simulation time: 3 hr 0 min 49 sec) 
Heartbeat CPU 3 instructions: 540000002 cycles: 435922628 heartbeat IPC: 1.18225 cumulative IPC: 1.16701 (Simulation time: 3 hr 1 min 18 sec) 
Heartbeat CPU 2 instructions: 560000003 cycles: 441035915 heartbeat IPC: 1.43456 cumulative IPC: 1.18582 (Simulation time: 3 hr 3 min 24 sec) 
Heartbeat CPU 3 instructions: 550000000 cycles: 444427524 heartbeat IPC: 1.17579 cumulative IPC: 1.16719 (Simulation time: 3 hr 4 min 40 sec) 
Heartbeat CPU 1 instructions: 390000001 cycles: 445566281 heartbeat IPC: 0.923986 cumulative IPC: 0.783909 (Simulation time: 3 hr 5 min 2 sec) 
Heartbeat CPU 2 instructions: 570000000 cycles: 448035473 heartbeat IPC: 1.42866 cumulative IPC: 1.18976 (Simulation time: 3 hr 5 min 56 sec) 
Heartbeat CPU 3 instructions: 560000002 cycles: 452939301 heartbeat IPC: 1.17484 cumulative IPC: 1.16734 (Simulation time: 3 hr 7 min 51 sec) 
Heartbeat CPU 2 instructions: 580000002 cycles: 454994331 heartbeat IPC: 1.43702 cumulative IPC: 1.19369 (Simulation time: 3 hr 8 min 38 sec) 
Heartbeat CPU 1 instructions: 400000000 cycles: 456321793 heartbeat IPC: 0.929756 cumulative IPC: 0.787481 (Simulation time: 3 hr 9 min 9 sec) 
Heartbeat CPU 0 instructions: 160000000 cycles: 460495618 heartbeat IPC: 0.256527 cumulative IPC: 0.248072 (Simulation time: 3 hr 10 min 39 sec) 
Heartbeat CPU 3 instructions: 570000002 cycles: 461469099 heartbeat IPC: 1.17236 cumulative IPC: 1.16743 (Simulation time: 3 hr 11 min 1 sec) 
Heartbeat CPU 2 instructions: 590000000 cycles: 463954519 heartbeat IPC: 1.11605 cumulative IPC: 1.19213 (Simulation time: 3 hr 11 min 54 sec) 
Heartbeat CPU 1 instructions: 410000003 cycles: 467157331 heartbeat IPC: 0.922889 cumulative IPC: 0.790741 (Simulation time: 3 hr 13 min 4 sec) 
Heartbeat CPU 3 instructions: 580000001 cycles: 470010520 heartbeat IPC: 1.17077 cumulative IPC: 1.1675 (Simulation time: 3 hr 14 min 8 sec) 
Heartbeat CPU 2 instructions: 600000001 cycles: 472422051 heartbeat IPC: 1.18098 cumulative IPC: 1.19192 (Simulation time: 3 hr 15 min 2 sec) 
Heartbeat CPU 1 instructions: 420000000 cycles: 477884550 heartbeat IPC: 0.932208 cumulative IPC: 0.794034 (Simulation time: 3 hr 17 min 10 sec) 
Heartbeat CPU 3 instructions: 590000001 cycles: 478564381 heartbeat IPC: 1.16906 cumulative IPC: 1.16752 (Simulation time: 3 hr 17 min 27 sec) 
Heartbeat CPU 2 instructions: 610000002 cycles: 480843364 heartbeat IPC: 1.18746 cumulative IPC: 1.19184 (Simulation time: 3 hr 18 min 18 sec) 
Heartbeat CPU 3 instructions: 600000000 cycles: 487049010 heartbeat IPC: 1.1786 cumulative IPC: 1.16772 (Simulation time: 3 hr 20 min 37 sec) 
Heartbeat CPU 1 instructions: 430000000 cycles: 488639435 heartbeat IPC: 0.92981 cumulative IPC: 0.79713 (Simulation time: 3 hr 21 min 14 sec) 
Heartbeat CPU 2 instructions: 620000001 cycles: 489176676 heartbeat IPC: 1.2 cumulative IPC: 1.19199 (Simulation time: 3 hr 21 min 25 sec) 
Heartbeat CPU 3 instructions: 610000000 cycles: 495520164 heartbeat IPC: 1.18048 cumulative IPC: 1.16795 (Simulation time: 3 hr 23 min 35 sec) 
Heartbeat CPU 2 instructions: 630000002 cycles: 496283957 heartbeat IPC: 1.40701 cumulative IPC: 1.19518 (Simulation time: 3 hr 23 min 51 sec) 
Heartbeat CPU 1 instructions: 440000000 cycles: 500028416 heartbeat IPC: 0.878042 cumulative IPC: 0.799038 (Simulation time: 3 hr 25 min 10 sec) 
Heartbeat CPU 2 instructions: 640000003 cycles: 502332980 heartbeat IPC: 1.65316 cumulative IPC: 1.20089 (Simulation time: 3 hr 26 min 3 sec) 
Heartbeat CPU 0 instructions: 170000000 cycles: 503665963 heartbeat IPC: 0.23164 cumulative IPC: 0.246614 (Simulation time: 3 hr 26 min 30 sec) 
Heartbeat CPU 3 instructions: 620000000 cycles: 503973260 heartbeat IPC: 1.183 cumulative IPC: 1.16821 (Simulation time: 3 hr 26 min 37 sec) 
Heartbeat CPU 2 instructions: 650000003 cycles: 508371374 heartbeat IPC: 1.65607 cumulative IPC: 1.20648 (Simulation time: 3 hr 28 min 14 sec) 
Heartbeat CPU 1 instructions: 450000000 cycles: 511035783 heartbeat IPC: 0.908482 cumulative IPC: 0.801477 (Simulation time: 3 hr 29 min 2 sec) 
Heartbeat CPU 3 instructions: 630000001 cycles: 512487592 heartbeat IPC: 1.17449 cumulative IPC: 1.16832 (Simulation time: 3 hr 29 min 27 sec) 
Heartbeat CPU 3 instructions: 640000001 cycles: 521051419 heartbeat IPC: 1.1677 cumulative IPC: 1.16831 (Simulation time: 3 hr 31 min 58 sec) 
Heartbeat CPU 2 instructions: 660000000 cycles: 521527186 heartbeat IPC: 0.76012 cumulative IPC: 1.19484 (Simulation time: 3 hr 32 min 6 sec) 
Heartbeat CPU 1 instructions: 460000000 cycles: 522871859 heartbeat IPC: 0.844875 cumulative IPC: 0.802493 (Simulation time: 3 hr 32 min 29 sec) 
Heartbeat CPU 3 instructions: 650000000 cycles: 529637370 heartbeat IPC: 1.16469 cumulative IPC: 1.16825 (Simulation time: 3 hr 34 min 50 sec) 
Heartbeat CPU 2 instructions: 670000002 cycles: 530258350 heartbeat IPC: 1.14532 cumulative IPC: 1.194 (Simulation time: 3 hr 35 min 3 sec) 
Heartbeat CPU 1 instructions: 470000002 cycles: 534645520 heartbeat IPC: 0.849354 cumulative IPC: 0.803559 (Simulation time: 3 hr 36 min 40 sec) 
Heartbeat CPU 2 instructions: 680000001 cycles: 537933075 heartbeat IPC: 1.30298 cumulative IPC: 1.1956 (Simulation time: 3 hr 37 min 57 sec) 
Heartbeat CPU 3 instructions: 660000000 cycles: 538279001 heartbeat IPC: 1.15719 cumulative IPC: 1.16807 (Simulation time: 3 hr 38 min 5 sec) 
Heartbeat CPU 2 instructions: 690000002 cycles: 545580397 heartbeat IPC: 1.30765 cumulative IPC: 1.19722 (Simulation time: 3 hr 40 min 52 sec) 
Heartbeat CPU 1 instructions: 480000001 cycles: 546283921 heartbeat IPC: 0.859224 cumulative IPC: 0.804783 (Simulation time: 3 hr 41 min 8 sec) 
Heartbeat CPU 3 instructions: 670000003 cycles: 546990921 heartbeat IPC: 1.14785 cumulative IPC: 1.16773 (Simulation time: 3 hr 41 min 23 sec) 
Heartbeat CPU 0 instructions: 180000003 cycles: 551313293 heartbeat IPC: 0.209875 cumulative IPC: 0.243337 (Simulation time: 3 hr 42 min 57 sec) 
Heartbeat CPU 2 instructions: 700000003 cycles: 553207575 heartbeat IPC: 1.3111 cumulative IPC: 1.19884 (Simulation time: 3 hr 43 min 39 sec) 
Heartbeat CPU 3 instructions: 680000000 cycles: 555507572 heartbeat IPC: 1.17417 cumulative IPC: 1.16783 (Simulation time: 3 hr 44 min 28 sec) 
Heartbeat CPU 1 instructions: 490000003 cycles: 557815352 heartbeat IPC: 0.867195 cumulative IPC: 0.806114 (Simulation time: 3 hr 45 min 18 sec) 
Heartbeat CPU 2 instructions: 710000002 cycles: 560802134 heartbeat IPC: 1.31673 cumulative IPC: 1.20049 (Simulation time: 3 hr 46 min 27 sec) 
Heartbeat CPU 3 instructions: 690000002 cycles: 563996671 heartbeat IPC: 1.17798 cumulative IPC: 1.16799 (Simulation time: 3 hr 47 min 44 sec) 
Heartbeat CPU 2 instructions: 720000003 cycles: 568391251 heartbeat IPC: 1.31768 cumulative IPC: 1.2021 (Simulation time: 3 hr 49 min 30 sec) 
*** Reached end of trace for Core: 1 Repeating trace: ./traces/ligra/ligra_MIS.com-lj.ungraph.gcc_6.3.0_O3.drop_21250M.length_250M.champsimtrace.xz
Heartbeat CPU 1 instructions: 500000002 cycles: 569342811 heartbeat IPC: 0.867494 cumulative IPC: 0.807395 (Simulation time: 3 hr 49 min 52 sec) 
Heartbeat CPU 3 instructions: 700000001 cycles: 572469204 heartbeat IPC: 1.18028 cumulative IPC: 1.16818 (Simulation time: 3 hr 50 min 51 sec) 
Heartbeat CPU 2 instructions: 730000001 cycles: 579637986 heartbeat IPC: 0.889147 cumulative IPC: 1.19585 (Simulation time: 3 hr 52 min 54 sec) 
Heartbeat CPU 3 instructions: 710000002 cycles: 580936390 heartbeat IPC: 1.18103 cumulative IPC: 1.16837 (Simulation time: 3 hr 53 min 16 sec) 
Heartbeat CPU 3 instructions: 720000002 cycles: 589416238 heartbeat IPC: 1.17927 cumulative IPC: 1.16853 (Simulation time: 3 hr 55 min 44 sec) 
Heartbeat CPU 1 instructions: 510000001 cycles: 590526720 heartbeat IPC: 0.472056 cumulative IPC: 0.795007 (Simulation time: 3 hr 56 min 3 sec) 
Heartbeat CPU 2 instructions: 740000000 cycles: 592161790 heartbeat IPC: 0.798479 cumulative IPC: 1.18719 (Simulation time: 3 hr 56 min 31 sec) 
Heartbeat CPU 3 instructions: 730000000 cycles: 598088840 heartbeat IPC: 1.15306 cumulative IPC: 1.1683 (Simulation time: 3 hr 58 min 11 sec) 
Heartbeat CPU 2 instructions: 750000000 cycles: 604956376 heartbeat IPC: 0.781581 cumulative IPC: 1.17837 (Simulation time: 4 hr 0 min 7 sec) 
Heartbeat CPU 3 instructions: 740000003 cycles: 606729524 heartbeat IPC: 1.15732 cumulative IPC: 1.16814 (Simulation time: 4 hr 0 min 31 sec) 
*** Reached end of trace for Core: 3 Repeating trace: ./traces/ligra/ligra_BFS.com-lj.ungraph.gcc_6.3.0_O3.drop_500M.length_250M.champsimtrace.xz
Heartbeat CPU 3 instructions: 750000002 cycles: 615739138 heartbeat IPC: 1.10993 cumulative IPC: 1.16727 (Simulation time: 4 hr 2 min 53 sec) 
Heartbeat CPU 2 instructions: 760000001 cycles: 616300478 heartbeat IPC: 0.881515 cumulative IPC: 1.17275 (Simulation time: 4 hr 3 min 3 sec) 
Heartbeat CPU 1 instructions: 520000001 cycles: 617090469 heartbeat IPC: 0.376453 cumulative IPC: 0.776477 (Simulation time: 4 hr 3 min 16 sec) 
Heartbeat CPU 3 instructions: 760000000 cycles: 624495705 heartbeat IPC: 1.142 cumulative IPC: 1.1669 (Simulation time: 4 hr 5 min 21 sec) 
Heartbeat CPU 2 instructions: 770000000 cycles: 627078604 heartbeat IPC: 0.927805 cumulative IPC: 1.16842 (Simulation time: 4 hr 5 min 58 sec) 
Heartbeat CPU 3 instructions: 770000000 cycles: 633026990 heartbeat IPC: 1.17216 cumulative IPC: 1.16697 (Simulation time: 4 hr 7 min 19 sec) 
Heartbeat CPU 3 instructions: 780000001 cycles: 641581172 heartbeat IPC: 1.16902 cumulative IPC: 1.167 (Simulation time: 4 hr 9 min 38 sec) 
Heartbeat CPU 2 instructions: 780000001 cycles: 641804945 heartbeat IPC: 0.679055 cumulative IPC: 1.15688 (Simulation time: 4 hr 9 min 41 sec) 
Heartbeat CPU 1 instructions: 530000000 cycles: 644251028 heartbeat IPC: 0.368181 cumulative IPC: 0.758795 (Simulation time: 4 hr 10 min 23 sec) 
Heartbeat CPU 0 instructions: 190000003 cycles: 648380403 heartbeat IPC: 0.103022 cumulative IPC: 0.221763 (Simulation time: 4 hr 11 min 38 sec) 
Heartbeat CPU 3 instructions: 790000000 cycles: 650051205 heartbeat IPC: 1.18063 cumulative IPC: 1.16718 (Simulation time: 4 hr 12 min 8 sec) 
Heartbeat CPU 2 instructions: 790000003 cycles: 651934189 heartbeat IPC: 0.987241 cumulative IPC: 1.15418 (Simulation time: 4 hr 12 min 44 sec) 
Heartbeat CPU 3 instructions: 800000000 cycles: 658568417 heartbeat IPC: 1.17409 cumulative IPC: 1.16728 (Simulation time: 4 hr 14 min 47 sec) 
Heartbeat CPU 2 instructions: 800000001 cycles: 661820990 heartbeat IPC: 1.01145 cumulative IPC: 1.15199 (Simulation time: 4 hr 15 min 48 sec) 
Heartbeat CPU 1 instructions: 540000002 cycles: 666513077 heartbeat IPC: 0.449195 cumulative IPC: 0.748183 (Simulation time: 4 hr 17 min 15 sec) 
Heartbeat CPU 3 instructions: 810000001 cycles: 667094816 heartbeat IPC: 1.17283 cumulative IPC: 1.16735 (Simulation time: 4 hr 17 min 25 sec) 
Heartbeat CPU 2 instructions: 810000002 cycles: 671440503 heartbeat IPC: 1.03955 cumulative IPC: 1.15033 (Simulation time: 4 hr 18 min 46 sec) 
Heartbeat CPU 3 instructions: 820000001 cycles: 675630689 heartbeat IPC: 1.17153 cumulative IPC: 1.1674 (Simulation time: 4 hr 20 min 7 sec) 
Heartbeat CPU 2 instructions: 820000002 cycles: 679255719 heartbeat IPC: 1.27956 cumulative IPC: 1.15186 (Simulation time: 4 hr 21 min 19 sec) 
Heartbeat CPU 3 instructions: 830000000 cycles: 684171782 heartbeat IPC: 1.17081 cumulative IPC: 1.16745 (Simulation time: 4 hr 23 min 7 sec) 
Heartbeat CPU 2 instructions: 830000002 cycles: 686715558 heartbeat IPC: 1.34051 cumulative IPC: 1.15396 (Simulation time: 4 hr 24 min 0 sec) 
Heartbeat CPU 1 instructions: 550000000 cycles: 689977090 heartbeat IPC: 0.426184 cumulative IPC: 0.736955 (Simulation time: 4 hr 25 min 15 sec) 
Heartbeat CPU 3 instructions: 840000001 cycles: 692725274 heartbeat IPC: 1.16911 cumulative IPC: 1.16747 (Simulation time: 4 hr 26 min 17 sec) 
Heartbeat CPU 2 instructions: 840000001 cycles: 693840247 heartbeat IPC: 1.40357 cumulative IPC: 1.15659 (Simulation time: 4 hr 26 min 43 sec) 
Heartbeat CPU 1 instructions: 560000003 cycles: 699767066 heartbeat IPC: 1.02145 cumulative IPC: 0.741034 (Simulation time: 4 hr 28 min 58 sec) 
Heartbeat CPU 2 instructions: 850000003 cycles: 700875179 heartbeat IPC: 1.42148 cumulative IPC: 1.15931 (Simulation time: 4 hr 29 min 25 sec) 
Heartbeat CPU 3 instructions: 850000002 cycles: 701210484 heartbeat IPC: 1.17852 cumulative IPC: 1.16761 (Simulation time: 4 hr 29 min 33 sec) 
Heartbeat CPU 2 instructions: 860000000 cycles: 707896406 heartbeat IPC: 1.42425 cumulative IPC: 1.16201 (Simulation time: 4 hr 31 min 59 sec) 
Heartbeat CPU 1 instructions: 570000000 cycles: 708847170 heartbeat IPC: 1.10131 cumulative IPC: 0.745763 (Simulation time: 4 hr 32 min 21 sec) 
Heartbeat CPU 3 instructions: 860000002 cycles: 709680033 heartbeat IPC: 1.1807 cumulative IPC: 1.16777 (Simulation time: 4 hr 32 min 40 sec) 
Heartbeat CPU 0 instructions: 200000001 cycles: 712722155 heartbeat IPC: 0.15542 cumulative IPC: 0.215627 (Simulation time: 4 hr 33 min 43 sec) 
Heartbeat CPU 2 instructions: 870000003 cycles: 714925129 heartbeat IPC: 1.42273 cumulative IPC: 1.16463 (Simulation time: 4 hr 34 min 30 sec) 
Heartbeat CPU 1 instructions: 580000000 cycles: 717944859 heartbeat IPC: 1.09918 cumulative IPC: 0.750351 (Simulation time: 4 hr 35 min 38 sec) 
Heartbeat CPU 3 instructions: 870000001 cycles: 718133327 heartbeat IPC: 1.18297 cumulative IPC: 1.16795 (Simulation time: 4 hr 35 min 42 sec) 
Heartbeat CPU 2 instructions: 880000000 cycles: 723107193 heartbeat IPC: 1.22219 cumulative IPC: 1.1653 (Simulation time: 4 hr 37 min 27 sec) 
Heartbeat CPU 3 instructions: 880000000 cycles: 726647713 heartbeat IPC: 1.17448 cumulative IPC: 1.16803 (Simulation time: 4 hr 38 min 38 sec) 
Heartbeat CPU 1 instructions: 590000003 cycles: 727250948 heartbeat IPC: 1.07457 cumulative IPC: 0.754599 (Simulation time: 4 hr 38 min 50 sec) 
Heartbeat CPU 2 instructions: 890000001 cycles: 731674095 heartbeat IPC: 1.16728 cumulative IPC: 1.16532 (Simulation time: 4 hr 40 min 28 sec) 
Heartbeat CPU 3 instructions: 890000000 cycles: 735210967 heartbeat IPC: 1.16778 cumulative IPC: 1.16802 (Simulation time: 4 hr 41 min 44 sec) 
Heartbeat CPU 1 instructions: 600000001 cycles: 736660542 heartbeat IPC: 1.06274 cumulative IPC: 0.758629 (Simulation time: 4 hr 42 min 12 sec) 
Heartbeat CPU 2 instructions: 900000002 cycles: 740186486 heartbeat IPC: 1.17476 cumulative IPC: 1.16543 (Simulation time: 4 hr 43 min 25 sec) 
Heartbeat CPU 3 instructions: 900000002 cycles: 743797170 heartbeat IPC: 1.16466 cumulative IPC: 1.16798 (Simulation time: 4 hr 44 min 42 sec) 
Heartbeat CPU 1 instructions: 610000002 cycles: 746519543 heartbeat IPC: 1.0143 cumulative IPC: 0.762084 (Simulation time: 4 hr 45 min 35 sec) 
Heartbeat CPU 2 instructions: 910000003 cycles: 748670031 heartbeat IPC: 1.17875 cumulative IPC: 1.16559 (Simulation time: 4 hr 46 min 13 sec) 
Heartbeat CPU 3 instructions: 910000002 cycles: 752438270 heartbeat IPC: 1.15726 cumulative IPC: 1.16786 (Simulation time: 4 hr 47 min 33 sec) 
Heartbeat CPU 2 instructions: 920000000 cycles: 757060658 heartbeat IPC: 1.19181 cumulative IPC: 1.16589 (Simulation time: 4 hr 48 min 57 sec) 
Heartbeat CPU 1 instructions: 620000001 cycles: 757943913 heartbeat IPC: 0.875322 cumulative IPC: 0.763831 (Simulation time: 4 hr 49 min 14 sec) 
Heartbeat CPU 0 instructions: 210000001 cycles: 758868084 heartbeat IPC: 0.216704 cumulative IPC: 0.215694 (Simulation time: 4 hr 49 min 32 sec) 
Heartbeat CPU 3 instructions: 920000000 cycles: 761150576 heartbeat IPC: 1.1478 cumulative IPC: 1.16762 (Simulation time: 4 hr 50 min 20 sec) 
Heartbeat CPU 2 instructions: 930000002 cycles: 763256935 heartbeat IPC: 1.61387 cumulative IPC: 1.16961 (Simulation time: 4 hr 51 min 4 sec) 
Heartbeat CPU 1 instructions: 630000000 cycles: 768511124 heartbeat IPC: 0.946323 cumulative IPC: 0.766397 (Simulation time: 4 hr 52 min 59 sec) 
Heartbeat CPU 2 instructions: 940000000 cycles: 769292668 heartbeat IPC: 1.6568 cumulative IPC: 1.17352 (Simulation time: 4 hr 53 min 16 sec) 
Heartbeat CPU 3 instructions: 930000002 cycles: 769666740 heartbeat IPC: 1.17424 cumulative IPC: 1.1677 (Simulation time: 4 hr 53 min 24 sec) 
Heartbeat CPU 3 instructions: 940000000 cycles: 778156032 heartbeat IPC: 1.17795 cumulative IPC: 1.16781 (Simulation time: 4 hr 55 min 58 sec) 
Heartbeat CPU 2 instructions: 950000001 cycles: 778581871 heartbeat IPC: 1.07652 cumulative IPC: 1.17233 (Simulation time: 4 hr 56 min 5 sec) 
Heartbeat CPU 1 instructions: 640000001 cycles: 779474375 heartbeat IPC: 0.912138 cumulative IPC: 0.768493 (Simulation time: 4 hr 56 min 20 sec) 
Heartbeat CPU 3 instructions: 950000001 cycles: 786627911 heartbeat IPC: 1.18038 cumulative IPC: 1.16795 (Simulation time: 4 hr 58 min 18 sec) 
Heartbeat CPU 2 instructions: 960000002 cycles: 790389103 heartbeat IPC: 0.846939 cumulative IPC: 1.16736 (Simulation time: 4 hr 59 min 32 sec) 
Heartbeat CPU 1 instructions: 650000000 cycles: 790569746 heartbeat IPC: 0.901277 cumulative IPC: 0.770397 (Simulation time: 4 hr 59 min 35 sec) 
Heartbeat CPU 3 instructions: 960000001 cycles: 795078523 heartbeat IPC: 1.18335 cumulative IPC: 1.16812 (Simulation time: 5 hr 1 min 10 sec) 
Heartbeat CPU 2 instructions: 970000001 cycles: 798255998 heartbeat IPC: 1.27115 cumulative IPC: 1.16841 (Simulation time: 5 hr 2 min 21 sec) 
Heartbeat CPU 1 instructions: 660000000 cycles: 801135013 heartbeat IPC: 0.946498 cumulative IPC: 0.77277 (Simulation time: 5 hr 3 min 21 sec) 
Heartbeat CPU 3 instructions: 970000000 cycles: 803532680 heartbeat IPC: 1.18285 cumulative IPC: 1.16828 (Simulation time: 5 hr 4 min 11 sec) 
Heartbeat CPU 2 instructions: 980000000 cycles: 805896468 heartbeat IPC: 1.30882 cumulative IPC: 1.16977 (Simulation time: 5 hr 5 min 1 sec) 
Heartbeat CPU 0 instructions: 220000000 cycles: 810655438 heartbeat IPC: 0.193097 cumulative IPC: 0.214219 (Simulation time: 5 hr 6 min 42 sec) 
Heartbeat CPU 1 instructions: 670000000 cycles: 811819221 heartbeat IPC: 0.935961 cumulative IPC: 0.774964 (Simulation time: 5 hr 7 min 8 sec) 
Heartbeat CPU 3 instructions: 980000000 cycles: 812192448 heartbeat IPC: 1.15477 cumulative IPC: 1.16813 (Simulation time: 5 hr 7 min 17 sec) 
Heartbeat CPU 2 instructions: 990000000 cycles: 813569924 heartbeat IPC: 1.30319 cumulative IPC: 1.17106 (Simulation time: 5 hr 7 min 44 sec) 
Heartbeat CPU 3 instructions: 990000000 cycles: 820817287 heartbeat IPC: 1.15944 cumulative IPC: 1.16804 (Simulation time: 5 hr 10 min 20 sec) 
Heartbeat CPU 2 instructions: 1000000003 cycles: 821181225 heartbeat IPC: 1.31384 cumulative IPC: 1.17241 (Simulation time: 5 hr 10 min 28 sec) 
Heartbeat CPU 1 instructions: 680000000 cycles: 822487849 heartbeat IPC: 0.937328 cumulative IPC: 0.777115 (Simulation time: 5 hr 10 min 57 sec) 
Heartbeat CPU 2 instructions: 1010000001 cycles: 828758677 heartbeat IPC: 1.3197 cumulative IPC: 1.17378 (Simulation time: 5 hr 13 min 19 sec) 
*** Reached end of trace for Core: 3 Repeating trace: ./traces/ligra/ligra_BFS.com-lj.ungraph.gcc_6.3.0_O3.drop_500M.length_250M.champsimtrace.xz
Heartbeat CPU 3 instructions: 1000000001 cycles: 829334641 heartbeat IPC: 1.17407 cumulative IPC: 1.1681 (Simulation time: 5 hr 13 min 32 sec) 
Heartbeat CPU 1 instructions: 690000001 cycles: 833010473 heartbeat IPC: 0.950333 cumulative IPC: 0.779349 (Simulation time: 5 hr 14 min 47 sec) 
Heartbeat CPU 2 instructions: 1020000002 cycles: 836409546 heartbeat IPC: 1.30704 cumulative IPC: 1.17503 (Simulation time: 5 hr 16 min 1 sec) 
Heartbeat CPU 3 instructions: 1010000000 cycles: 837796477 heartbeat IPC: 1.18178 cumulative IPC: 1.16824 (Simulation time: 5 hr 16 min 32 sec) 
Heartbeat CPU 1 instructions: 700000000 cycles: 843723132 heartbeat IPC: 0.933475 cumulative IPC: 0.781346 (Simulation time: 5 hr 18 min 36 sec) 
Heartbeat CPU 2 instructions: 1030000000 cycles: 844017171 heartbeat IPC: 1.31447 cumulative IPC: 1.17631 (Simulation time: 5 hr 18 min 41 sec) 
Heartbeat CPU 3 instructions: 1020000000 cycles: 846278343 heartbeat IPC: 1.17899 cumulative IPC: 1.16835 (Simulation time: 5 hr 19 min 27 sec) 
Heartbeat CPU 2 instructions: 1040000001 cycles: 851690614 heartbeat IPC: 1.3032 cumulative IPC: 1.17748 (Simulation time: 5 hr 21 min 22 sec) 
Heartbeat CPU 3 instructions: 1030000000 cycles: 854769266 heartbeat IPC: 1.17773 cumulative IPC: 1.16845 (Simulation time: 5 hr 22 min 26 sec) 
Heartbeat CPU 1 instructions: 710000000 cycles: 854777211 heartbeat IPC: 0.904643 cumulative IPC: 0.782973 (Simulation time: 5 hr 22 min 27 sec) 
Heartbeat CPU 2 instructions: 1050000002 cycles: 859699563 heartbeat IPC: 1.2486 cumulative IPC: 1.17815 (Simulation time: 5 hr 24 min 6 sec) 
Heartbeat CPU 3 instructions: 1040000002 cycles: 863229025 heartbeat IPC: 1.18207 cumulative IPC: 1.16858 (Simulation time: 5 hr 25 min 21 sec) 
Heartbeat CPU 2 instructions: 1060000003 cycles: 865553133 heartbeat IPC: 1.70836 cumulative IPC: 1.18181 (Simulation time: 5 hr 26 min 9 sec) 
Heartbeat CPU 1 instructions: 720000002 cycles: 867694939 heartbeat IPC: 0.77413 cumulative IPC: 0.782839 (Simulation time: 5 hr 26 min 52 sec) 
Heartbeat CPU 0 instructions: 230000003 cycles: 868026143 heartbeat IPC: 0.174305 cumulative IPC: 0.211528 (Simulation time: 5 hr 26 min 58 sec) 
Heartbeat CPU 3 instructions: 1050000002 cycles: 871735463 heartbeat IPC: 1.17558 cumulative IPC: 1.16865 (Simulation time: 5 hr 28 min 6 sec) 
Heartbeat CPU 2 instructions: 1070000003 cycles: 873730171 heartbeat IPC: 1.22294 cumulative IPC: 1.1822 (Simulation time: 5 hr 28 min 42 sec) 
Heartbeat CPU 1 instructions: 730000001 cycles: 879564961 heartbeat IPC: 0.842458 cumulative IPC: 0.783659 (Simulation time: 5 hr 30 min 52 sec) 
Heartbeat CPU 3 instructions: 1060000000 cycles: 880247330 heartbeat IPC: 1.17483 cumulative IPC: 1.16871 (Simulation time: 5 hr 31 min 6 sec) 
Heartbeat CPU 2 instructions: 1080000001 cycles: 881306959 heartbeat IPC: 1.31982 cumulative IPC: 1.18341 (Simulation time: 5 hr 31 min 30 sec) 
Heartbeat CPU 2 instructions: 1090000001 cycles: 888668834 heartbeat IPC: 1.35835 cumulative IPC: 1.18489 (Simulation time: 5 hr 34 min 5 sec) 
Heartbeat CPU 3 instructions: 1070000000 cycles: 888776625 heartbeat IPC: 1.17243 cumulative IPC: 1.16875 (Simulation time: 5 hr 34 min 8 sec) 
Heartbeat CPU 1 instructions: 740000003 cycles: 890882152 heartbeat IPC: 0.883612 cumulative IPC: 0.784954 (Simulation time: 5 hr 35 min 2 sec) 
Heartbeat CPU 2 instructions: 1100000000 cycles: 895995853 heartbeat IPC: 1.36481 cumulative IPC: 1.18639 (Simulation time: 5 hr 36 min 54 sec) 
Heartbeat CPU 3 instructions: 1080000000 cycles: 897317767 heartbeat IPC: 1.1708 cumulative IPC: 1.16877 (Simulation time: 5 hr 37 min 23 sec) 
*** Reached end of trace for Core: 1 Repeating trace: ./traces/ligra/ligra_MIS.com-lj.ungraph.gcc_6.3.0_O3.drop_21250M.length_250M.champsimtrace.xz
Heartbeat CPU 1 instructions: 750000002 cycles: 902247177 heartbeat IPC: 0.879892 cumulative IPC: 0.786173 (Simulation time: 5 hr 39 min 13 sec) 
Heartbeat CPU 2 instructions: 1110000000 cycles: 903488034 heartbeat IPC: 1.33472 cumulative IPC: 1.18764 (Simulation time: 5 hr 39 min 39 sec) 
Heartbeat CPU 3 instructions: 1090000003 cycles: 905872517 heartbeat IPC: 1.16894 cumulative IPC: 1.16877 (Simulation time: 5 hr 40 min 25 sec) 
Heartbeat CPU 2 instructions: 1120000001 cycles: 913055523 heartbeat IPC: 1.04521 cumulative IPC: 1.18612 (Simulation time: 5 hr 42 min 38 sec) 
Heartbeat CPU 3 instructions: 1100000000 cycles: 914361403 heartbeat IPC: 1.17801 cumulative IPC: 1.16886 (Simulation time: 5 hr 43 min 1 sec) 
Heartbeat CPU 1 instructions: 760000001 cycles: 922724077 heartbeat IPC: 0.488355 cumulative IPC: 0.779439 (Simulation time: 5 hr 45 min 30 sec) 
Heartbeat CPU 3 instructions: 1110000001 cycles: 922843976 heartbeat IPC: 1.17889 cumulative IPC: 1.16895 (Simulation time: 5 hr 45 min 32 sec) 
Heartbeat CPU 2 instructions: 1130000003 cycles: 923462595 heartbeat IPC: 0.960885 cumulative IPC: 1.18353 (Simulation time: 5 hr 45 min 43 sec) 
Heartbeat CPU 0 instructions: 240000000 cycles: 925473147 heartbeat IPC: 0.174073 cumulative IPC: 0.20916 (Simulation time: 5 hr 46 min 17 sec) 
Heartbeat CPU 3 instructions: 1120000002 cycles: 931308110 heartbeat IPC: 1.18146 cumulative IPC: 1.16907 (Simulation time: 5 hr 47 min 54 sec) 
Heartbeat CPU 2 instructions: 1140000003 cycles: 935558590 heartbeat IPC: 0.82672 cumulative IPC: 1.17883 (Simulation time: 5 hr 49 min 6 sec) 
Heartbeat CPU 3 instructions: 1130000002 cycles: 939831219 heartbeat IPC: 1.17328 cumulative IPC: 1.16911 (Simulation time: 5 hr 50 min 17 sec) 
Heartbeat CPU 1 instructions: 770000000 cycles: 945278061 heartbeat IPC: 0.443381 cumulative IPC: 0.771273 (Simulation time: 5 hr 51 min 44 sec) 
Heartbeat CPU 2 instructions: 1150000000 cycles: 947548828 heartbeat IPC: 0.834012 cumulative IPC: 1.17439 (Simulation time: 5 hr 52 min 19 sec) 
Heartbeat CPU 3 instructions: 1140000002 cycles: 948407139 heartbeat IPC: 1.16606 cumulative IPC: 1.16908 (Simulation time: 5 hr 52 min 33 sec) 
Heartbeat CPU 3 instructions: 1150000000 cycles: 957004791 heartbeat IPC: 1.16311 cumulative IPC: 1.16902 (Simulation time: 5 hr 54 min 50 sec) 
Heartbeat CPU 2 instructions: 1160000001 cycles: 959523141 heartbeat IPC: 0.835121 cumulative IPC: 1.17008 (Simulation time: 5 hr 55 min 31 sec) 
Heartbeat CPU 3 instructions: 1160000000 cycles: 965657301 heartbeat IPC: 1.15573 cumulative IPC: 1.1689 (Simulation time: 5 hr 57 min 8 sec) 
Heartbeat CPU 1 instructions: 780000003 cycles: 967664229 heartbeat IPC: 0.446705 cumulative IPC: 0.76363 (Simulation time: 5 hr 57 min 43 sec) 
Heartbeat CPU 2 instructions: 1170000003 cycles: 971625686 heartbeat IPC: 0.826273 cumulative IPC: 1.16572 (Simulation time: 5 hr 58 min 48 sec) 
Heartbeat CPU 3 instructions: 1170000000 cycles: 974384920 heartbeat IPC: 1.14579 cumulative IPC: 1.16869 (Simulation time: 5 hr 59 min 28 sec) 
Heartbeat CPU 3 instructions: 1180000000 cycles: 982949872 heartbeat IPC: 1.16755 cumulative IPC: 1.16868 (Simulation time: 6 hr 1 min 38 sec) 
Heartbeat CPU 2 instructions: 1180000000 cycles: 985665649 heartbeat IPC: 0.712252 cumulative IPC: 1.15915 (Simulation time: 6 hr 2 min 26 sec) 
Heartbeat CPU 1 instructions: 790000001 cycles: 990804077 heartbeat IPC: 0.432155 cumulative IPC: 0.755753 (Simulation time: 6 hr 3 min 53 sec) 
Heartbeat CPU 3 instructions: 1190000001 cycles: 991457408 heartbeat IPC: 1.17543 cumulative IPC: 1.16874 (Simulation time: 6 hr 4 min 4 sec) 
Heartbeat CPU 2 instructions: 1190000003 cycles: 996689407 heartbeat IPC: 0.907132 cumulative IPC: 1.15631 (Simulation time: 6 hr 5 min 34 sec) 
Heartbeat CPU 3 instructions: 1200000001 cycles: 999932517 heartbeat IPC: 1.17993 cumulative IPC: 1.16884 (Simulation time: 6 hr 6 min 28 sec) 
Heartbeat CPU 2 instructions: 1200000002 cycles: 1005508308 heartbeat IPC: 1.13393 cumulative IPC: 1.15611 (Simulation time: 6 hr 8 min 15 sec) 
Heartbeat CPU 3 instructions: 1210000000 cycles: 1008383361 heartbeat IPC: 1.18331 cumulative IPC: 1.16896 (Simulation time: 6 hr 9 min 9 sec) 
Heartbeat CPU 2 instructions: 1210000000 cycles: 1014047486 heartbeat IPC: 1.17107 cumulative IPC: 1.15624 (Simulation time: 6 hr 11 min 6 sec) 
Heartbeat CPU 1 instructions: 800000000 cycles: 1014530821 heartbeat IPC: 0.421465 cumulative IPC: 0.747801 (Simulation time: 6 hr 11 min 18 sec) 
Heartbeat CPU 3 instructions: 1220000000 cycles: 1016837354 heartbeat IPC: 1.18287 cumulative IPC: 1.16908 (Simulation time: 6 hr 12 min 2 sec) 
Heartbeat CPU 2 instructions: 1220000003 cycles: 1021357497 heartbeat IPC: 1.36799 cumulative IPC: 1.15778 (Simulation time: 6 hr 13 min 32 sec) 
Heartbeat CPU 1 instructions: 810000003 cycles: 1024474628 heartbeat IPC: 1.00565 cumulative IPC: 0.750346 (Simulation time: 6 hr 14 min 41 sec) 
Heartbeat CPU 3 instructions: 1230000002 cycles: 1025496984 heartbeat IPC: 1.15478 cumulative IPC: 1.16896 (Simulation time: 6 hr 15 min 3 sec) 
Heartbeat CPU 2 instructions: 1230000002 cycles: 1027414015 heartbeat IPC: 1.65111 cumulative IPC: 1.16074 (Simulation time: 6 hr 15 min 45 sec) 
Heartbeat CPU 2 instructions: 1240000000 cycles: 1033447836 heartbeat IPC: 1.65732 cumulative IPC: 1.16369 (Simulation time: 6 hr 17 min 56 sec) 
Heartbeat CPU 1 instructions: 820000000 cycles: 1033547298 heartbeat IPC: 1.10221 cumulative IPC: 0.753487 (Simulation time: 6 hr 17 min 58 sec) 
Heartbeat CPU 3 instructions: 1240000003 cycles: 1034121837 heartbeat IPC: 1.15944 cumulative IPC: 1.16887 (Simulation time: 6 hr 18 min 9 sec) 
*** Reached end of trace for Core: 0 Repeating trace: ./traces/ligra/ligra_Components-Shortcut.com-lj.ungraph.gcc_6.3.0_O3.drop_22000M.length_250M.champsimtrace.xz
Heartbeat CPU 0 instructions: 250000003 cycles: 1034748358 heartbeat IPC: 0.0915121 cumulative IPC: 0.196527 (Simulation time: 6 hr 18 min 19 sec) 
Finished CPU 0 instructions: 200000000 cycles: 1017673468 cumulative IPC: 0.196527 (Simulation time: 6 hr 18 min 19 sec) 

ChampSim completed all CPUs

Total Simulation Statistics (not including warmup)

CPU 0 cumulative IPC: 0.196527 instructions: 200000000 cycles: 1017673468
ITLB TOTAL     ACCESS:   43109106  HIT:   43109106  MISS:          0  HIT %:        100  MISS %:          0   MPKI: 0
ITLB LOAD      ACCESS:          0  HIT:          0  MISS:          0  HIT %:       -nan  MISS %:       -nan   MPKI: 0
ITLB RFO       ACCESS:          0  HIT:          0  MISS:          0  HIT %:       -nan  MISS %:       -nan   MPKI: 0
ITLB PREFETCH  ACCESS:          0  HIT:          0  MISS:          0  HIT %:       -nan  MISS %:       -nan   MPKI: 0
ITLB WRITEBACK ACCESS:          0  HIT:          0  MISS:          0  HIT %:       -nan  MISS %:       -nan   MPKI: 0
DTLB TOTAL     ACCESS:   57420953  HIT:   44215242  MISS:   13205711  HIT %:    77.0019  MISS %:    22.9981   MPKI: 66.0286
DTLB LOAD      ACCESS:          0  HIT:          0  MISS:          0  HIT %:       -nan  MISS %:       -nan   MPKI: 0
DTLB RFO       ACCESS:          0  HIT:          0  MISS:          0  HIT %:       -nan  MISS %:       -nan   MPKI: 0
DTLB PREFETCH  ACCESS:          0  HIT:          0  MISS:          0  HIT %:       -nan  MISS %:       -nan   MPKI: 0
DTLB WRITEBACK ACCESS:          0  HIT:          0  MISS:          0  HIT %:       -nan  MISS %:       -nan   MPKI: 0
STLB TOTAL     ACCESS:   29370270  HIT:   28194092  MISS:    1176178  HIT %:    95.9953  MISS %:    4.00466   MPKI: 5.88089
STLB LOAD      ACCESS:          0  HIT:          0  MISS:          0  HIT %:       -nan  MISS %:       -nan   MPKI: 0
STLB RFO       ACCESS:          0  HIT:          0  MISS:          0  HIT %:       -nan  MISS %:       -nan   MPKI: 0
STLB PREFETCH  ACCESS:          0  HIT:          0  MISS:          0  HIT %:       -nan  MISS %:       -nan   MPKI: 0
STLB WRITEBACK ACCESS:          0  HIT:          0  MISS:          0  HIT %:       -nan  MISS %:       -nan   MPKI: 0
L1D TOTAL     ACCESS:  132874943  HIT:  117821892  MISS:   15053051  HIT %:    88.6713  MISS %:    11.3287   MPKI: 75.2653
L1D LOAD      ACCESS:   59262491  HIT:   45952254  MISS:   13310237  HIT %:    77.5402  MISS %:    22.4598   MPKI: 66.5512
L1D RFO       ACCESS:    1827222  HIT:    1827222  MISS:          0  HIT %:        100  MISS %:          0   MPKI: 0
L1D PREFETCH  ACCESS:   71785230  HIT:   70042416  MISS:    1742814  HIT %:    97.5722  MISS %:    2.42782   MPKI: 8.71407
L1D WRITEBACK ACCESS:          0  HIT:          0  MISS:          0  HIT %:       -nan  MISS %:       -nan   MPKI: 0
L1I TOTAL     ACCESS:   45641825  HIT:   45641825  MISS:          0  HIT %:        100  MISS %:          0   MPKI: 0
L1I LOAD      ACCESS:   45641825  HIT:   45641825  MISS:          0  HIT %:        100  MISS %:          0   MPKI: 0
L1I RFO       ACCESS:          0  HIT:          0  MISS:          0  HIT %:       -nan  MISS %:       -nan   MPKI: 0
L1I PREFETCH  ACCESS:          0  HIT:          0  MISS:          0  HIT %:       -nan  MISS %:       -nan   MPKI: 0
L1I WRITEBACK ACCESS:          0  HIT:          0  MISS:          0  HIT %:       -nan  MISS %:       -nan   MPKI: 0
L2C TOTAL     ACCESS:   37552109  HIT:   24956709  MISS:   12595400  HIT %:    66.4589  MISS %:    33.5411   MPKI: 62.977
L2C LOAD      ACCESS:   13299539  HIT:    2604026  MISS:   10695513  HIT %:    19.5798  MISS %:    80.4202   MPKI: 53.4776
L2C RFO       ACCESS:          0  HIT:          0  MISS:          0  HIT %:       -nan  MISS %:       -nan   MPKI: 0
L2C PREFETCH  ACCESS:   20892466  HIT:   19134972  MISS:    1757494  HIT %:    91.5879  MISS %:    8.41209   MPKI: 8.78747
L2C WRITEBACK ACCESS:     114210  HIT:     110061  MISS:       4149  HIT %:    96.3672  MISS %:    3.63278   MPKI: 0.020745
PSCL5 TOTAL     ACCESS:    3245883  HIT:    3245883  MISS:          0  HIT %:        100  MISS %:          0   MPKI: 0
PSCL5 LOAD      ACCESS:          0  HIT:          0  MISS:          0  HIT %:       -nan  MISS %:       -nan   MPKI: 0
PSCL5 RFO       ACCESS:          0  HIT:          0  MISS:          0  HIT %:       -nan  MISS %:       -nan   MPKI: 0
PSCL5 PREFETCH  ACCESS:          0  HIT:          0  MISS:          0  HIT %:       -nan  MISS %:       -nan   MPKI: 0
PSCL5 WRITEBACK ACCESS:          0  HIT:          0  MISS:          0  HIT %:       -nan  MISS %:       -nan   MPKI: 0
PSCL4 TOTAL     ACCESS:    3245883  HIT:    3245883  MISS:          0  HIT %:        100  MISS %:          0   MPKI: 0
PSCL4 LOAD      ACCESS:          0  HIT:          0  MISS:          0  HIT %:       -nan  MISS %:       -nan   MPKI: 0
PSCL4 RFO       ACCESS:          0  HIT:          0  MISS:          0  HIT %:       -nan  MISS %:       -nan   MPKI: 0
PSCL4 PREFETCH  ACCESS:          0  HIT:          0  MISS:          0  HIT %:       -nan  MISS %:       -nan   MPKI: 0
PSCL4 WRITEBACK ACCESS:          0  HIT:          0  MISS:          0  HIT %:       -nan  MISS %:       -nan   MPKI: 0
PSCL3 TOTAL     ACCESS:    3245883  HIT:    3245883  MISS:          0  HIT %:        100  MISS %:          0   MPKI: 0
PSCL3 LOAD      ACCESS:          0  HIT:          0  MISS:          0  HIT %:       -nan  MISS %:       -nan   MPKI: 0
PSCL3 RFO       ACCESS:          0  HIT:          0  MISS:          0  HIT %:       -nan  MISS %:       -nan   MPKI: 0
PSCL3 PREFETCH  ACCESS:          0  HIT:          0  MISS:          0  HIT %:       -nan  MISS %:       -nan   MPKI: 0
PSCL3 WRITEBACK ACCESS:          0  HIT:          0  MISS:          0  HIT %:       -nan  MISS %:       -nan   MPKI: 0
PSCL2 TOTAL     ACCESS:    3241911  HIT:    3241843  MISS:         68  HIT %:    99.9979  MISS %: 0.00209753   MPKI: 0.00034
PSCL2 LOAD      ACCESS:          0  HIT:          0  MISS:          0  HIT %:       -nan  MISS %:       -nan   MPKI: 0
PSCL2 RFO       ACCESS:          0  HIT:          0  MISS:          0  HIT %:       -nan  MISS %:       -nan   MPKI: 0
PSCL2 PREFETCH  ACCESS:          0  HIT:          0  MISS:          0  HIT %:       -nan  MISS %:       -nan   MPKI: 0
PSCL2 WRITEBACK ACCESS:          0  HIT:          0  MISS:          0  HIT %:       -nan  MISS %:       -nan   MPKI: 0
LLC TOTAL     ACCESS:   12705502  HIT:    6445410  MISS:    6260092  HIT %:    50.7293  MISS %:    49.2707   MPKI: 31.3005
LLC LOAD      ACCESS:   10693610  HIT:    6202356  MISS:    4491254  HIT %:    58.0006  MISS %:    41.9994   MPKI: 22.4563
LLC RFO       ACCESS:          0  HIT:          0  MISS:          0  HIT %:       -nan  MISS %:       -nan   MPKI: 0
LLC PREFETCH  ACCESS:    1759397  HIT:       4658  MISS:    1754739  HIT %:    0.26475  MISS %:    99.7353   MPKI: 8.7737
LLC WRITEBACK ACCESS:     114251  HIT:     108961  MISS:       5290  HIT %:    95.3698  MISS %:    4.63016   MPKI: 0.02645

RAW hits: 2584483
Loads Generated: 83100967
Loads sent to L1D: 80516481
Stores Generated: 1827224
Stores sent to L1D: 1827225

CPU 1 cumulative IPC: 0.753872 instructions: 767195604 cycles: 1017673469
ITLB TOTAL     ACCESS:  180401831  HIT:  180401831  MISS:          0  HIT %:        100  MISS %:          0   MPKI: 0
ITLB LOAD      ACCESS:          0  HIT:          0  MISS:          0  HIT %:       -nan  MISS %:       -nan   MPKI: 0
ITLB RFO       ACCESS:          0  HIT:          0  MISS:          0  HIT %:       -nan  MISS %:       -nan   MPKI: 0
ITLB PREFETCH  ACCESS:          0  HIT:          0  MISS:          0  HIT %:       -nan  MISS %:       -nan   MPKI: 0
ITLB WRITEBACK ACCESS:          0  HIT:          0  MISS:          0  HIT %:       -nan  MISS %:       -nan   MPKI: 0
DTLB TOTAL     ACCESS:  170467623  HIT:  164976841  MISS:    5490782  HIT %:     96.779  MISS %:    3.22101   MPKI: 7.15695
DTLB LOAD      ACCESS:          0  HIT:          0  MISS:          0  HIT %:       -nan  MISS %:       -nan   MPKI: 0
DTLB RFO       ACCESS:          0  HIT:          0  MISS:          0  HIT %:       -nan  MISS %:       -nan   MPKI: 0
DTLB PREFETCH  ACCESS:          0  HIT:          0  MISS:          0  HIT %:       -nan  MISS %:       -nan   MPKI: 0
DTLB WRITEBACK ACCESS:          0  HIT:          0  MISS:          0  HIT %:       -nan  MISS %:       -nan   MPKI: 0
STLB TOTAL     ACCESS:   73176292  HIT:   72996159  MISS:     180133  HIT %:    99.7538  MISS %:   0.246163   MPKI: 0.234794
STLB LOAD      ACCESS:          0  HIT:          0  MISS:          0  HIT %:       -nan  MISS %:       -nan   MPKI: 0
STLB RFO       ACCESS:          0  HIT:          0  MISS:          0  HIT %:       -nan  MISS %:       -nan   MPKI: 0
STLB PREFETCH  ACCESS:          0  HIT:          0  MISS:          0  HIT %:       -nan  MISS %:       -nan   MPKI: 0
STLB WRITEBACK ACCESS:          0  HIT:          0  MISS:          0  HIT %:       -nan  MISS %:       -nan   MPKI: 0
L1D TOTAL     ACCESS:  412169937  HIT:  386410560  MISS:   25759377  HIT %:    93.7503  MISS %:     6.2497   MPKI: 33.576
L1D LOAD      ACCESS:  155898288  HIT:  140130487  MISS:   15767801  HIT %:    89.8858  MISS %:    10.1142   MPKI: 20.5525
L1D RFO       ACCESS:    4690089  HIT:    1478199  MISS:    3211890  HIT %:    31.5175  MISS %:    68.4825   MPKI: 4.18653
L1D PREFETCH  ACCESS:  251581560  HIT:  244801874  MISS:    6779686  HIT %:    97.3052  MISS %:    2.69483   MPKI: 8.83697
L1D WRITEBACK ACCESS:          0  HIT:          0  MISS:          0  HIT %:       -nan  MISS %:       -nan   MPKI: 0
L1I TOTAL     ACCESS:  180467097  HIT:  180467097  MISS:          0  HIT %:        100  MISS %:          0   MPKI: 0
L1I LOAD      ACCESS:  180467097  HIT:  180467097  MISS:          0  HIT %:        100  MISS %:          0   MPKI: 0
L1I RFO       ACCESS:          0  HIT:          0  MISS:          0  HIT %:       -nan  MISS %:       -nan   MPKI: 0
L1I PREFETCH  ACCESS:          0  HIT:          0  MISS:          0  HIT %:       -nan  MISS %:       -nan   MPKI: 0
L1I WRITEBACK ACCESS:          0  HIT:          0  MISS:          0  HIT %:       -nan  MISS %:       -nan   MPKI: 0
L2C TOTAL     ACCESS:   62023511  HIT:   47682794  MISS:   14340717  HIT %:    76.8786  MISS %:    23.1214   MPKI: 18.6924
L2C LOAD      ACCESS:   15063502  HIT:   12091425  MISS:    2972077  HIT %:    80.2697  MISS %:    19.7303   MPKI: 3.87395
L2C RFO       ACCESS:    3211890  HIT:          0  MISS:    3211890  HIT %:          0  MISS %:        100   MPKI: 4.18653
L2C PREFETCH  ACCESS:   39191871  HIT:   31150853  MISS:    8041018  HIT %:    79.4829  MISS %:    20.5171   MPKI: 10.4811
L2C WRITEBACK ACCESS:    3211956  HIT:    3120646  MISS:      91310  HIT %:    97.1572  MISS %:    2.84282   MPKI: 0.119018
PSCL5 TOTAL     ACCESS:    1343942  HIT:    1343942  MISS:          0  HIT %:        100  MISS %:          0   MPKI: 0
PSCL5 LOAD      ACCESS:          0  HIT:          0  MISS:          0  HIT %:       -nan  MISS %:       -nan   MPKI: 0
PSCL5 RFO       ACCESS:          0  HIT:          0  MISS:          0  HIT %:       -nan  MISS %:       -nan   MPKI: 0
PSCL5 PREFETCH  ACCESS:          0  HIT:          0  MISS:          0  HIT %:       -nan  MISS %:       -nan   MPKI: 0
PSCL5 WRITEBACK ACCESS:          0  HIT:          0  MISS:          0  HIT %:       -nan  MISS %:       -nan   MPKI: 0
PSCL4 TOTAL     ACCESS:    1343942  HIT:    1343942  MISS:          0  HIT %:        100  MISS %:          0   MPKI: 0
PSCL4 LOAD      ACCESS:          0  HIT:          0  MISS:          0  HIT %:       -nan  MISS %:       -nan   MPKI: 0
PSCL4 RFO       ACCESS:          0  HIT:          0  MISS:          0  HIT %:       -nan  MISS %:       -nan   MPKI: 0
PSCL4 PREFETCH  ACCESS:          0  HIT:          0  MISS:          0  HIT %:       -nan  MISS %:       -nan   MPKI: 0
PSCL4 WRITEBACK ACCESS:          0  HIT:          0  MISS:          0  HIT %:       -nan  MISS %:       -nan   MPKI: 0
PSCL3 TOTAL     ACCESS:    1343942  HIT:    1343942  MISS:          0  HIT %:        100  MISS %:          0   MPKI: 0
PSCL3 LOAD      ACCESS:          0  HIT:          0  MISS:          0  HIT %:       -nan  MISS %:       -nan   MPKI: 0
PSCL3 RFO       ACCESS:          0  HIT:          0  MISS:          0  HIT %:       -nan  MISS %:       -nan   MPKI: 0
PSCL3 PREFETCH  ACCESS:          0  HIT:          0  MISS:          0  HIT %:       -nan  MISS %:       -nan   MPKI: 0
PSCL3 WRITEBACK ACCESS:          0  HIT:          0  MISS:          0  HIT %:       -nan  MISS %:       -nan   MPKI: 0
PSCL2 TOTAL     ACCESS:    1342638  HIT:    1342248  MISS:        390  HIT %:     99.971  MISS %:  0.0290473   MPKI: 0.000508345
PSCL2 LOAD      ACCESS:          0  HIT:          0  MISS:          0  HIT %:       -nan  MISS %:       -nan   MPKI: 0
PSCL2 RFO       ACCESS:          0  HIT:          0  MISS:          0  HIT %:       -nan  MISS %:       -nan   MPKI: 0
PSCL2 PREFETCH  ACCESS:          0  HIT:          0  MISS:          0  HIT %:       -nan  MISS %:       -nan   MPKI: 0
PSCL2 WRITEBACK ACCESS:          0  HIT:          0  MISS:          0  HIT %:       -nan  MISS %:       -nan   MPKI: 0
LLC TOTAL     ACCESS:   17461363  HIT:    5812977  MISS:   11648386  HIT %:    33.2905  MISS %:    66.7095   MPKI: 15.1831
LLC LOAD      ACCESS:    2770925  HIT:    2606270  MISS:     164655  HIT %:    94.0578  MISS %:    5.94224   MPKI: 0.214619
LLC RFO       ACCESS:    3211890  HIT:          0  MISS:    3211890  HIT %:          0  MISS %:        100   MPKI: 4.18653
LLC PREFETCH  ACCESS:    8242170  HIT:       5643  MISS:    8236527  HIT %:   0.068465  MISS %:    99.9315   MPKI: 10.7359
LLC WRITEBACK ACCESS:    3211956  HIT:    3199542  MISS:      12414  HIT %:    99.6135  MISS %:   0.386493   MPKI: 0.016181

RAW hits: 11607
Loads Generated: 242864131
Loads sent to L1D: 242852524
Stores Generated: 36722847
Stores sent to L1D: 36722847

CPU 2 cumulative IPC: 1.16364 instructions: 1184206935 cycles: 1017673469
ITLB TOTAL     ACCESS:  181753213  HIT:  181753172  MISS:         41  HIT %:        100  MISS %: 2.25581e-05   MPKI: 3.46223e-05
ITLB LOAD      ACCESS:          0  HIT:          0  MISS:          0  HIT %:       -nan  MISS %:       -nan   MPKI: 0
ITLB RFO       ACCESS:          0  HIT:          0  MISS:          0  HIT %:       -nan  MISS %:       -nan   MPKI: 0
ITLB PREFETCH  ACCESS:          0  HIT:          0  MISS:          0  HIT %:       -nan  MISS %:       -nan   MPKI: 0
ITLB WRITEBACK ACCESS:          0  HIT:          0  MISS:          0  HIT %:       -nan  MISS %:       -nan   MPKI: 0
DTLB TOTAL     ACCESS:  312569462  HIT:  312071685  MISS:     497777  HIT %:    99.8407  MISS %:   0.159253   MPKI: 0.420346
DTLB LOAD      ACCESS:          0  HIT:          0  MISS:          0  HIT %:       -nan  MISS %:       -nan   MPKI: 0
DTLB RFO       ACCESS:          0  HIT:          0  MISS:          0  HIT %:       -nan  MISS %:       -nan   MPKI: 0
DTLB PREFETCH  ACCESS:          0  HIT:          0  MISS:          0  HIT %:       -nan  MISS %:       -nan   MPKI: 0
DTLB WRITEBACK ACCESS:          0  HIT:          0  MISS:          0  HIT %:       -nan  MISS %:       -nan   MPKI: 0
STLB TOTAL     ACCESS:  101821147  HIT:  101671574  MISS:     149573  HIT %:    99.8531  MISS %:   0.146898   MPKI: 0.126306
STLB LOAD      ACCESS:          0  HIT:          0  MISS:          0  HIT %:       -nan  MISS %:       -nan   MPKI: 0
STLB RFO       ACCESS:          0  HIT:          0  MISS:          0  HIT %:       -nan  MISS %:       -nan   MPKI: 0
STLB PREFETCH  ACCESS:          0  HIT:          0  MISS:          0  HIT %:       -nan  MISS %:       -nan   MPKI: 0
STLB WRITEBACK ACCESS:          0  HIT:          0  MISS:          0  HIT %:       -nan  MISS %:       -nan   MPKI: 0
L1D TOTAL     ACCESS:  710231218  HIT:  697267067  MISS:   12964151  HIT %:    98.1747  MISS %:    1.82534   MPKI: 10.9475
L1D LOAD      ACCESS:  276221810  HIT:  273927339  MISS:    2294471  HIT %:    99.1693  MISS %:   0.830663   MPKI: 1.93756
L1D RFO       ACCESS:   66433591  HIT:   64584631  MISS:    1848960  HIT %:    97.2168  MISS %:    2.78317   MPKI: 1.56135
L1D PREFETCH  ACCESS:  367575817  HIT:  358755097  MISS:    8820720  HIT %:    97.6003  MISS %:     2.3997   MPKI: 7.44863
L1D WRITEBACK ACCESS:          0  HIT:          0  MISS:          0  HIT %:       -nan  MISS %:       -nan   MPKI: 0
L1I TOTAL     ACCESS:  219108777  HIT:  219105177  MISS:       3600  HIT %:    99.9984  MISS %: 0.00164302   MPKI: 0.00304001
L1I LOAD      ACCESS:  219108777  HIT:  219105177  MISS:       3600  HIT %:    99.9984  MISS %: 0.00164302   MPKI: 0.00304001
L1I RFO       ACCESS:          0  HIT:          0  MISS:          0  HIT %:       -nan  MISS %:       -nan   MPKI: 0
L1I PREFETCH  ACCESS:          0  HIT:          0  MISS:          0  HIT %:       -nan  MISS %:       -nan   MPKI: 0
L1I WRITEBACK ACCESS:          0  HIT:          0  MISS:          0  HIT %:       -nan  MISS %:       -nan   MPKI: 0
L2C TOTAL     ACCESS:   40991362  HIT:   31850894  MISS:    9140468  HIT %:    77.7015  MISS %:    22.2985   MPKI: 7.71864
L2C LOAD      ACCESS:    2144234  HIT:    1353493  MISS:     790741  HIT %:    63.1224  MISS %:    36.8776   MPKI: 0.667739
L2C RFO       ACCESS:    1848897  HIT:     851989  MISS:     996908  HIT %:    46.0809  MISS %:    53.9191   MPKI: 0.841836
L2C PREFETCH  ACCESS:   32412910  HIT:   25194821  MISS:    7218089  HIT %:    77.7308  MISS %:    22.2692   MPKI: 6.09529
L2C WRITEBACK ACCESS:    4013526  HIT:    3904501  MISS:     109025  HIT %:    97.2836  MISS %:    2.71644   MPKI: 0.0920658
PSCL5 TOTAL     ACCESS:     571168  HIT:     571168  MISS:          0  HIT %:        100  MISS %:          0   MPKI: 0
PSCL5 LOAD      ACCESS:          0  HIT:          0  MISS:          0  HIT %:       -nan  MISS %:       -nan   MPKI: 0
PSCL5 RFO       ACCESS:          0  HIT:          0  MISS:          0  HIT %:       -nan  MISS %:       -nan   MPKI: 0
PSCL5 PREFETCH  ACCESS:          0  HIT:          0  MISS:          0  HIT %:       -nan  MISS %:       -nan   MPKI: 0
PSCL5 WRITEBACK ACCESS:          0  HIT:          0  MISS:          0  HIT %:       -nan  MISS %:       -nan   MPKI: 0
PSCL4 TOTAL     ACCESS:     571168  HIT:     571168  MISS:          0  HIT %:        100  MISS %:          0   MPKI: 0
PSCL4 LOAD      ACCESS:          0  HIT:          0  MISS:          0  HIT %:       -nan  MISS %:       -nan   MPKI: 0
PSCL4 RFO       ACCESS:          0  HIT:          0  MISS:          0  HIT %:       -nan  MISS %:       -nan   MPKI: 0
PSCL4 PREFETCH  ACCESS:          0  HIT:          0  MISS:          0  HIT %:       -nan  MISS %:       -nan   MPKI: 0
PSCL4 WRITEBACK ACCESS:          0  HIT:          0  MISS:          0  HIT %:       -nan  MISS %:       -nan   MPKI: 0
PSCL3 TOTAL     ACCESS:     571168  HIT:     571168  MISS:          0  HIT %:        100  MISS %:          0   MPKI: 0
PSCL3 LOAD      ACCESS:          0  HIT:          0  MISS:          0  HIT %:       -nan  MISS %:       -nan   MPKI: 0
PSCL3 RFO       ACCESS:          0  HIT:          0  MISS:          0  HIT %:       -nan  MISS %:       -nan   MPKI: 0
PSCL3 PREFETCH  ACCESS:          0  HIT:          0  MISS:          0  HIT %:       -nan  MISS %:       -nan   MPKI: 0
PSCL3 WRITEBACK ACCESS:          0  HIT:          0  MISS:          0  HIT %:       -nan  MISS %:       -nan   MPKI: 0
PSCL2 TOTAL     ACCESS:     570796  HIT:     570230  MISS:        566  HIT %:    99.9008  MISS %:  0.0991598   MPKI: 0.000477957
PSCL2 LOAD      ACCESS:          0  HIT:          0  MISS:          0  HIT %:       -nan  MISS %:       -nan   MPKI: 0
PSCL2 RFO       ACCESS:          0  HIT:          0  MISS:          0  HIT %:       -nan  MISS %:       -nan   MPKI: 0
PSCL2 PREFETCH  ACCESS:          0  HIT:          0  MISS:          0  HIT %:       -nan  MISS %:       -nan   MPKI: 0
PSCL2 WRITEBACK ACCESS:          0  HIT:          0  MISS:          0  HIT %:       -nan  MISS %:       -nan   MPKI: 0
LLC TOTAL     ACCESS:   11625155  HIT:    3061706  MISS:    8563449  HIT %:    26.3369  MISS %:    73.6631   MPKI: 7.23138
LLC LOAD      ACCESS:     454472  HIT:      74082  MISS:     380390  HIT %:    16.3007  MISS %:    83.6993   MPKI: 0.321219
LLC RFO       ACCESS:     996891  HIT:      77167  MISS:     919724  HIT %:    7.74077  MISS %:    92.2592   MPKI: 0.776658
LLC PREFETCH  ACCESS:    7554355  HIT:     422946  MISS:    7131409  HIT %:     5.5987  MISS %:    94.4013   MPKI: 6.0221
LLC WRITEBACK ACCESS:    2593732  HIT:    2482141  MISS:     111591  HIT %:    95.6977  MISS %:    4.30233   MPKI: 0.0942327

RAW hits: 22327627
Loads Generated: 405937280
Loads sent to L1D: 383609653
Stores Generated: 78823001
Stores sent to L1D: 78823002

CPU 3 cumulative IPC: 1.16887 instructions: 1189523430 cycles: 1017673469
ITLB TOTAL     ACCESS:  197516822  HIT:  197516822  MISS:          0  HIT %:        100  MISS %:          0   MPKI: 0
ITLB LOAD      ACCESS:          0  HIT:          0  MISS:          0  HIT %:       -nan  MISS %:       -nan   MPKI: 0
ITLB RFO       ACCESS:          0  HIT:          0  MISS:          0  HIT %:       -nan  MISS %:       -nan   MPKI: 0
ITLB PREFETCH  ACCESS:          0  HIT:          0  MISS:          0  HIT %:       -nan  MISS %:       -nan   MPKI: 0
ITLB WRITEBACK ACCESS:          0  HIT:          0  MISS:          0  HIT %:       -nan  MISS %:       -nan   MPKI: 0
DTLB TOTAL     ACCESS:  108089336  HIT:  108046021  MISS:      43315  HIT %:    99.9599  MISS %:  0.0400733   MPKI: 0.0364137
DTLB LOAD      ACCESS:          0  HIT:          0  MISS:          0  HIT %:       -nan  MISS %:       -nan   MPKI: 0
DTLB RFO       ACCESS:          0  HIT:          0  MISS:          0  HIT %:       -nan  MISS %:       -nan   MPKI: 0
DTLB PREFETCH  ACCESS:          0  HIT:          0  MISS:          0  HIT %:       -nan  MISS %:       -nan   MPKI: 0
DTLB WRITEBACK ACCESS:          0  HIT:          0  MISS:          0  HIT %:       -nan  MISS %:       -nan   MPKI: 0
STLB TOTAL     ACCESS:   78766862  HIT:   78723547  MISS:      43315  HIT %:     99.945  MISS %:  0.0549914   MPKI: 0.0364137
STLB LOAD      ACCESS:          0  HIT:          0  MISS:          0  HIT %:       -nan  MISS %:       -nan   MPKI: 0
STLB RFO       ACCESS:          0  HIT:          0  MISS:          0  HIT %:       -nan  MISS %:       -nan   MPKI: 0
STLB PREFETCH  ACCESS:          0  HIT:          0  MISS:          0  HIT %:       -nan  MISS %:       -nan   MPKI: 0
STLB WRITEBACK ACCESS:          0  HIT:          0  MISS:          0  HIT %:       -nan  MISS %:       -nan   MPKI: 0
L1D TOTAL     ACCESS:  490913370  HIT:  488141555  MISS:    2771815  HIT %:    99.4354  MISS %:   0.564624   MPKI: 2.33019
L1D LOAD      ACCESS:   86230498  HIT:   86219381  MISS:      11117  HIT %:    99.9871  MISS %:  0.0128922   MPKI: 0.00934576
L1D RFO       ACCESS:   25035481  HIT:   25035481  MISS:          0  HIT %:        100  MISS %:          0   MPKI: 0
L1D PREFETCH  ACCESS:  379647391  HIT:  376886693  MISS:    2760698  HIT %:    99.2728  MISS %:   0.727174   MPKI: 2.32084
L1D WRITEBACK ACCESS:          0  HIT:          0  MISS:          0  HIT %:       -nan  MISS %:       -nan   MPKI: 0
L1I TOTAL     ACCESS:  197516821  HIT:  197516821  MISS:          0  HIT %:        100  MISS %:          0   MPKI: 0
L1I LOAD      ACCESS:  197516821  HIT:  197516821  MISS:          0  HIT %:        100  MISS %:          0   MPKI: 0
L1I RFO       ACCESS:          0  HIT:          0  MISS:          0  HIT %:       -nan  MISS %:       -nan   MPKI: 0
L1I PREFETCH  ACCESS:          0  HIT:          0  MISS:          0  HIT %:       -nan  MISS %:       -nan   MPKI: 0
L1I WRITEBACK ACCESS:          0  HIT:          0  MISS:          0  HIT %:       -nan  MISS %:       -nan   MPKI: 0
L2C TOTAL     ACCESS:    8424349  HIT:    5297955  MISS:    3126394  HIT %:    62.8886  MISS %:    37.1114   MPKI: 2.62827
L2C LOAD      ACCESS:       3462  HIT:          7  MISS:       3455  HIT %:   0.202195  MISS %:    99.7978   MPKI: 0.00290452
L2C RFO       ACCESS:          0  HIT:          0  MISS:          0  HIT %:       -nan  MISS %:       -nan   MPKI: 0
L2C PREFETCH  ACCESS:    4570230  HIT:    1801870  MISS:    2768360  HIT %:    39.4262  MISS %:    60.5738   MPKI: 2.32728
L2C WRITEBACK ACCESS:    2771751  HIT:    2422618  MISS:     349133  HIT %:    87.4039  MISS %:    12.5961   MPKI: 0.293507
PSCL5 TOTAL     ACCESS:    1078906  HIT:    1078906  MISS:          0  HIT %:        100  MISS %:          0   MPKI: 0
PSCL5 LOAD      ACCESS:          0  HIT:          0  MISS:          0  HIT %:       -nan  MISS %:       -nan   MPKI: 0
PSCL5 RFO       ACCESS:          0  HIT:          0  MISS:          0  HIT %:       -nan  MISS %:       -nan   MPKI: 0
PSCL5 PREFETCH  ACCESS:          0  HIT:          0  MISS:          0  HIT %:       -nan  MISS %:       -nan   MPKI: 0
PSCL5 WRITEBACK ACCESS:          0  HIT:          0  MISS:          0  HIT %:       -nan  MISS %:       -nan   MPKI: 0
PSCL4 TOTAL     ACCESS:    1078906  HIT:    1078906  MISS:          0  HIT %:        100  MISS %:          0   MPKI: 0
[...]
L2C PREFETCH  REQUESTED:          0  ISSUED:          0  USEFUL:    1081541  USELESS:    6160394
L2C USEFUL LOAD PREFETCHES:    1081541 PREFETCH ISSUED TO LOWER LEVEL:    7554367  ACCURACY: 14.3168
L2C TIMELY PREFETCHES:    1081541 LATE PREFETCHES: 336276 DROPPED PREFETCHES: 0
L2C PREFETCHES SAME FILL-ORIGIN LEVEL: 3269757 DIFFERENT FILL-ORIGIN LEVEL: 0
L2C AVERAGE MISS LATENCY: 2204.32 cycles
L2C RQ	ACCESS:    4565036	FORWARD:          0	MERGED:          0	TO_CACHE:    4564927
L2C WQ	ACCESS:    4013526	FORWARD:        412	MERGED:          0	TO_CACHE:    4013526
L2C PQ	ACCESS:   45025713	FORWARD:          0	MERGED:     111378	TO_CACHE:   44914032

L2C Instructions Evicting Data 3554
L2C Translations Evicting Data 25581
L2C Data Evicting Data 8973483
L2C Instructions Evicting Instructions 26
L2C Translations Evicting Instructions 28
L2C Data Evicting Instructions 3474
L2C Instructions Evicting Translations 20
L2C Translations Evicting Translations 96
L2C Data Evicting Translations 25181
L2C Dense regions hint from L2: 0
PSCL5 TOTAL     ACCESS:     378599  HIT:     378599  MISS:          0  HIT %:        100  MISS %:          0   MPKI: 0
PSCL5 LOAD TRANSLATION ACCESS:      20700  HIT:      20700  MISS:          0  HIT %:        100  MISS %:          0   MPKI: 0
PSCL5 TRANSLATION FROM L1D PREFETCHER ACCESS:     357899  HIT:     357899  MISS:          0  HIT %:        100  MISS %:          0   MPKI: 0
PSCL5 PREFETCH  REQUESTED:          0  ISSUED:          0  USEFUL:          0  USELESS:          0
PSCL5 USEFUL LOAD PREFETCHES:          0 PREFETCH ISSUED TO LOWER LEVEL:          0  ACCURACY: -nan
PSCL5 TIMELY PREFETCHES:          0 LATE PREFETCHES: 0 DROPPED PREFETCHES: 0
PSCL5 PREFETCHES SAME FILL-ORIGIN LEVEL: 0 DIFFERENT FILL-ORIGIN LEVEL: 0

PSCL4 TOTAL     ACCESS:     378599  HIT:     378599  MISS:          0  HIT %:        100  MISS %:          0   MPKI: 0
PSCL4 LOAD TRANSLATION ACCESS:      20700  HIT:      20700  MISS:          0  HIT %:        100  MISS %:          0   MPKI: 0
PSCL4 TRANSLATION FROM L1D PREFETCHER ACCESS:     357899  HIT:     357899  MISS:          0  HIT %:        100  MISS %:          0   MPKI: 0
PSCL4 PREFETCH  REQUESTED:          0  ISSUED:          0  USEFUL:          0  USELESS:          0
PSCL4 USEFUL LOAD PREFETCHES:          0 PREFETCH ISSUED TO LOWER LEVEL:          0  ACCURACY: -nan
PSCL4 TIMELY PREFETCHES:          0 LATE PREFETCHES: 0 DROPPED PREFETCHES: 0
PSCL4 PREFETCHES SAME FILL-ORIGIN LEVEL: 0 DIFFERENT FILL-ORIGIN LEVEL: 0

PSCL3 TOTAL     ACCESS:     378599  HIT:     378599  MISS:          0  HIT %:        100  MISS %:          0   MPKI: 0
PSCL3 LOAD TRANSLATION ACCESS:      20700  HIT:      20700  MISS:          0  HIT %:        100  MISS %:          0   MPKI: 0
PSCL3 TRANSLATION FROM L1D PREFETCHER ACCESS:     357899  HIT:     357899  MISS:          0  HIT %:        100  MISS %:          0   MPKI: 0
PSCL3 PREFETCH  REQUESTED:          0  ISSUED:          0  USEFUL:          0  USELESS:          0
PSCL3 USEFUL LOAD PREFETCHES:          0 PREFETCH ISSUED TO LOWER LEVEL:          0  ACCURACY: -nan
PSCL3 TIMELY PREFETCHES:          0 LATE PREFETCHES: 0 DROPPED PREFETCHES: 0
PSCL3 PREFETCHES SAME FILL-ORIGIN LEVEL: 0 DIFFERENT FILL-ORIGIN LEVEL: 0

PSCL2 TOTAL     ACCESS:     378298  HIT:     378188  MISS:        110  HIT %:    99.9709  MISS %:  0.0290776   MPKI: 0.00055
PSCL2 LOAD TRANSLATION ACCESS:      20717  HIT:      20607  MISS:        110  HIT %:     99.469  MISS %:   0.530965   MPKI: 0.00055
PSCL2 TRANSLATION FROM L1D PREFETCHER ACCESS:     357581  HIT:     357581  MISS:          0  HIT %:        100  MISS %:          0   MPKI: 0
PSCL2 PREFETCH  REQUESTED:          0  ISSUED:          0  USEFUL:          0  USELESS:          0
PSCL2 USEFUL LOAD PREFETCHES:          0 PREFETCH ISSUED TO LOWER LEVEL:          0  ACCURACY: -nan
PSCL2 TIMELY PREFETCHES:          0 LATE PREFETCHES: 0 DROPPED PREFETCHES: 0
PSCL2 PREFETCHES SAME FILL-ORIGIN LEVEL: 0 DIFFERENT FILL-ORIGIN LEVEL: 0

LLC TOTAL     ACCESS:    2594060  HIT:     792386  MISS:    1801674  HIT %:    30.5462  MISS %:    69.4538   MPKI: 9.00837
LLC LOAD      ACCESS:      49410  HIT:       5408  MISS:      44002  HIT %:    10.9452  MISS %:    89.0548   MPKI: 0.22001
LLC RFO       ACCESS:     422006  HIT:       7369  MISS:     414637  HIT %:    1.74618  MISS %:    98.2538   MPKI: 2.07319
LLC PREFETCH  ACCESS:    1360856  HIT:      38825  MISS:    1322031  HIT %:    2.85298  MISS %:     97.147   MPKI: 6.61015
LLC WRITEBACK ACCESS:     757087  HIT:     740282  MISS:      16805  HIT %:    97.7803  MISS %:    2.21969   MPKI: 0.084025
LLC LOAD TRANSLATION ACCESS:       1607  HIT:        107  MISS:       1500  HIT %:    6.65837  MISS %:    93.3416   MPKI: 0.0075
LLC TRANSLATION FROM L1D PREFETCHER ACCESS:       3094  HIT:        395  MISS:       2699  HIT %:    12.7666  MISS %:    87.2334   MPKI: 0.013495
LLC PREFETCH  REQUESTED:          0  ISSUED:          0  USEFUL:      67428  USELESS:   19851436
LLC USEFUL LOAD PREFETCHES:      67428 PREFETCH ISSUED TO LOWER LEVEL:   21201110  ACCURACY: 0.31804
LLC TIMELY PREFETCHES:      67428 LATE PREFETCHES: 0 DROPPED PREFETCHES: 0
LLC PREFETCHES SAME FILL-ORIGIN LEVEL: 0 DIFFERENT FILL-ORIGIN LEVEL: 0
LLC AVERAGE MISS LATENCY: 7786.81 cycles
LLC RQ	ACCESS:   18325074	FORWARD:          0	MERGED:          0	TO_CACHE:   18325064
LLC WQ	ACCESS:    8691675	FORWARD:         20	MERGED:          0	TO_CACHE:    8691675
LLC PQ	ACCESS:   20324305	FORWARD:          0	MERGED:          0	TO_CACHE:   20324295

LLC Dense regions hint to LLC: 0

RAW hits: 327410
Loads Generated: 67436686
Loads sent to L1D: 67109276
Stores Generated: 13493097
Stores sent to L1D: 13493098
Major fault: 0 Minor fault: 24541
Allocated PAGES: 125973

CPU 3 cumulative IPC: 1.15893 instructions: 200000001 cycles: 172573502
ITLB TOTAL     ACCESS:   33204689  HIT:   33204689  MISS:          0  HIT %:        100  MISS %:          0   MPKI: 0
ITLB LOAD TRANSLATION ACCESS:   33204689  HIT:   33204689  MISS:          0  HIT %:        100  MISS %:          0   MPKI: 0
ITLB PREFETCH  REQUESTED:          0  ISSUED:          0  USEFUL:          0  USELESS:          0
ITLB USEFUL LOAD PREFETCHES:          0 PREFETCH ISSUED TO LOWER LEVEL:          0  ACCURACY: -nan
ITLB TIMELY PREFETCHES:          0 LATE PREFETCHES: 0 DROPPED PREFETCHES: 0
ITLB PREFETCHES SAME FILL-ORIGIN LEVEL: 0 DIFFERENT FILL-ORIGIN LEVEL: 0
ITLB AVERAGE MISS LATENCY: -nan cycles
ITLB RQ	ACCESS:  197516822	FORWARD:          0	MERGED:          0	TO_CACHE:  197516822

DTLB TOTAL     ACCESS:   18095576  HIT:   18088286  MISS:       7290  HIT %:    99.9597  MISS %:  0.0402861   MPKI: 0.03645
DTLB LOAD TRANSLATION ACCESS:   18095576  HIT:   18088286  MISS:       7290  HIT %:    99.9597  MISS %:  0.0402861   MPKI: 0.03645
DTLB PREFETCH  REQUESTED:          0  ISSUED:          0  USEFUL:          0  USELESS:          0
DTLB USEFUL LOAD PREFETCHES:          0 PREFETCH ISSUED TO LOWER LEVEL:          0  ACCURACY: -nan
DTLB TIMELY PREFETCHES:          0 LATE PREFETCHES: 0 DROPPED PREFETCHES: 0
DTLB PREFETCHES SAME FILL-ORIGIN LEVEL: 0 DIFFERENT FILL-ORIGIN LEVEL: 0
DTLB AVERAGE MISS LATENCY: 148.018 cycles
DTLB RQ	ACCESS:  111330433	FORWARD:          0	MERGED:    3241097	TO_CACHE:  108089336

STLB TOTAL     ACCESS:   11278258  HIT:   11270967  MISS:       7291  HIT %:    99.9354  MISS %:  0.0646465   MPKI: 0.036455
STLB LOAD TRANSLATION ACCESS:       7290  HIT:         43  MISS:       7247  HIT %:   0.589849  MISS %:    99.4102   MPKI: 0.036235
STLB TRANSLATION FROM L1D PREFETCHER ACCESS:   11270968  HIT:   11270924  MISS:         44  HIT %:    99.9996  MISS %: 0.000390384   MPKI: 0.00022
STLB PREFETCH  REQUESTED:          0  ISSUED:          0  USEFUL:      36062  USELESS:          0
STLB USEFUL LOAD PREFETCHES:      36062 PREFETCH ISSUED TO LOWER LEVEL:          0  ACCURACY: inf
STLB TIMELY PREFETCHES:      36062 LATE PREFETCHES: 1533 DROPPED PREFETCHES: 1034062
STLB PREFETCHES SAME FILL-ORIGIN LEVEL: 0 DIFFERENT FILL-ORIGIN LEVEL: 0
STLB AVERAGE MISS LATENCY: 562.118 cycles
STLB RQ	ACCESS:  425797162	FORWARD:          0	MERGED:  345923069	TO_CACHE:   79874093

STLB Hit, L1D data hit: 0
STLB Hit, L2C data hit: 0
STLB Hit, LLC data hit: 0
STLB Hit, LLC data miss: 0
STLB STLB hints to L2: 0
L1D TOTAL     ACCESS:   75326683  HIT:   74860191  MISS:     466492  HIT %:    99.3807  MISS %:   0.619292   MPKI: 2.33246
L1D LOAD      ACCESS:   14412112  HIT:   14403745  MISS:       8367  HIT %:    99.9419  MISS %:  0.0580553   MPKI: 0.041835
L1D RFO       ACCESS:    4175864  HIT:    4175864  MISS:          0  HIT %:        100  MISS %:          0   MPKI: 0
L1D PREFETCH  ACCESS:   56738707  HIT:   56280582  MISS:     458125  HIT %:    99.1926  MISS %:   0.807429   MPKI: 2.29062
L1D PREFETCH  REQUESTED: 1105676565  ISSUED: 1105569071  USEFUL:    2760621  USELESS:         64
L1D USEFUL LOAD PREFETCHES:    2760621 PREFETCH ISSUED TO LOWER LEVEL:    8058207  ACCURACY: 34.2585
L1D TIMELY PREFETCHES:    2760621 LATE PREFETCHES: 7655 DROPPED PREFETCHES: 2959580
L1D PREFETCHES SAME FILL-ORIGIN LEVEL: 2768356 DIFFERENT FILL-ORIGIN LEVEL: 5289851
L1D AVERAGE MISS LATENCY: 2827.26 cycles
L1D RQ	ACCESS:  177391005	FORWARD:          0	MERGED:   91096054	TO_CACHE:   86294951
L1D WQ	ACCESS:   25035482	FORWARD:          0	MERGED:          0	TO_CACHE:   25035482
L1D PQ	ACCESS:  679815224	FORWARD:          0	MERGED:  254061377	TO_CACHE:  425753847

L1D UNIQUE REGIONS ACCESSED: 0
L1D REGIONS CONFLICTS: 0
L1D Cross Page Prefetch Requests: 62713529
L1D Same Page Prefetch Requests: 676447374
L1D ROI Sum of L1D PQ occupancy: 5173455224
L1D PREFETCHES PUSHED FROM L2C: 0
L1I TOTAL     ACCESS:   33204689  HIT:   33204689  MISS:          0  HIT %:        100  MISS %:          0   MPKI: 0
L1I LOAD      ACCESS:   33204689  HIT:   33204689  MISS:          0  HIT %:        100  MISS %:          0   MPKI: 0
L1I PREFETCH  REQUESTED:          0  ISSUED:          0  USEFUL:          0  USELESS:          0
L1I USEFUL LOAD PREFETCHES:          0 PREFETCH ISSUED TO LOWER LEVEL:          0  ACCURACY: -nan
L1I TIMELY PREFETCHES:          0 LATE PREFETCHES: 0 DROPPED PREFETCHES: 0
L1I PREFETCHES SAME FILL-ORIGIN LEVEL: 0 DIFFERENT FILL-ORIGIN LEVEL: 0
L1I AVERAGE MISS LATENCY: -nan cycles
L1I RQ	ACCESS:  475597535	FORWARD:          0	MERGED:  278080713	TO_CACHE:  197516822

BTB TOTAL     ACCESS:   59706896  HIT:   59706896  MISS:          0  HIT %:        100  MISS %:          0   MPKI: 0
BTB BRANCH_DIRECT_JUMP	ACCESS:          0  HIT:          0  MISS:          0
BTB BRANCH_INDIRECT	ACCESS:          0  HIT:          0  MISS:          0
BTB BRANCH_CONDITIONAL	ACCESS:   59706896  HIT:   59706896  MISS:          0
BTB BRANCH_DIRECT_CALL	ACCESS:          0  HIT:          0  MISS:          0
BTB BRANCH_INDIRECT_CALL	ACCESS:          0  HIT:          0  MISS:          0
BTB BRANCH_RETURN	ACCESS:          0  HIT:          0  MISS:          0
BTB BRANCH_OTHER ACCESS:          0  HIT:          0  MISS:          0

L2C TOTAL     ACCESS:    2923701  HIT:    2402036  MISS:     521665  HIT %:    82.1574  MISS %:    17.8426   MPKI: 2.60832
L2C LOAD      ACCESS:       3448  HIT:          0  MISS:       3448  HIT %:          0  MISS %:        100   MPKI: 0.01724
L2C DATA LOAD MPKI: 0.01724
L2C INSTRUCTION LOAD MPKI: 0
L2C PREFETCH  ACCESS:    1410895  HIT:     947851  MISS:     463044  HIT %:    67.1808  MISS %:    32.8192   MPKI: 2.31522
L2C DATA PREFETCH MPKI: 2.31522
L2C INSTRUCTION PREFETCH MPKI: 0
L2C WRITEBACK ACCESS:     466476  HIT:     412230  MISS:      54246  HIT %:    88.3711  MISS %:    11.6289   MPKI: 0.27123
L2C LOAD TRANSLATION ACCESS:       7247  HIT:       7246  MISS:          1  HIT %:    99.9862  MISS %:  0.0137988   MPKI: 5e-06
L2C TRANSLATION FROM L1D PREFETCHER ACCESS:    1035635  HIT:    1034709  MISS:        926  HIT %:    99.9106  MISS %:  0.0894137   MPKI: 0.00463
L2C PREFETCH  REQUESTED:          0  ISSUED:          0  USEFUL:       5437  USELESS:    2768326
L2C USEFUL LOAD PREFETCHES:       5437 PREFETCH ISSUED TO LOWER LEVEL:    2768363  ACCURACY: 0.196398
L2C TIMELY PREFETCHES:       5437 LATE PREFETCHES: 0 DROPPED PREFETCHES: 0
L2C PREFETCHES SAME FILL-ORIGIN LEVEL: 253113 DIFFERENT FILL-ORIGIN LEVEL: 0
L2C AVERAGE MISS LATENCY: 2685.69 cycles
L2C RQ	ACCESS:    1082368	FORWARD:          0	MERGED:          0	TO_CACHE:    1082368
L2C WQ	ACCESS:    2771751	FORWARD:          0	MERGED:          0	TO_CACHE:    2771751
L2C PQ	ACCESS:    8058207	FORWARD:          0	MERGED:       1381	TO_CACHE:    8056826

L2C Instructions Evicting Data 0
L2C Translations Evicting Data 5446
L2C Data Evicting Data 2766894
L2C Instructions Evicting Instructions 0
L2C Translations Evicting Instructions 0
L2C Data Evicting Instructions 0
L2C Instructions Evicting Translations 0
L2C Translations Evicting Translations 0
L2C Data Evicting Translations 4921
L2C Dense regions hint from L2: 0
PSCL5 TOTAL     ACCESS:    1042882  HIT:    1042882  MISS:          0  HIT %:        100  MISS %:          0   MPKI: 0
PSCL5 LOAD TRANSLATION ACCESS:       7247  HIT:       7247  MISS:          0  HIT %:        100  MISS %:          0   MPKI: 0
PSCL5 TRANSLATION FROM L1D PREFETCHER ACCESS:    1035635  HIT:    1035635  MISS:          0  HIT %:        100  MISS %:          0   MPKI: 0
PSCL5 PREFETCH  REQUESTED:          0  ISSUED:          0  USEFUL:          0  USELESS:          0
PSCL5 USEFUL LOAD PREFETCHES:          0 PREFETCH ISSUED TO LOWER LEVEL:          0  ACCURACY: -nan
PSCL5 TIMELY PREFETCHES:          0 LATE PREFETCHES: 0 DROPPED PREFETCHES: 0
PSCL5 PREFETCHES SAME FILL-ORIGIN LEVEL: 0 DIFFERENT FILL-ORIGIN LEVEL: 0

PSCL4 TOTAL     ACCESS:    1042882  HIT:    1042882  MISS:          0  HIT %:        100  MISS %:          0   MPKI: 0
PSCL4 LOAD TRANSLATION ACCESS:       7247  HIT:       7247  MISS:          0  HIT %:        100  MISS %:          0   MPKI: 0
PSCL4 TRANSLATION FROM L1D PREFETCHER ACCESS:    1035635  HIT:    1035635  MISS:          0  HIT %:        100  MISS %:          0   MPKI: 0
PSCL4 PREFETCH  REQUESTED:          0  ISSUED:          0  USEFUL:          0  USELESS:          0
PSCL4 USEFUL LOAD PREFETCHES:          0 PREFETCH ISSUED TO LOWER LEVEL:          0  ACCURACY: -nan
PSCL4 TIMELY PREFETCHES:          0 LATE PREFETCHES: 0 DROPPED PREFETCHES: 0
PSCL4 PREFETCHES SAME FILL-ORIGIN LEVEL: 0 DIFFERENT FILL-ORIGIN LEVEL: 0

PSCL3 TOTAL     ACCESS:    1042882  HIT:    1042882  MISS:          0  HIT %:        100  MISS %:          0   MPKI: 0
PSCL3 LOAD TRANSLATION ACCESS:       7247  HIT:       7247  MISS:          0  HIT %:        100  MISS %:          0   MPKI: 0
PSCL3 TRANSLATION FROM L1D PREFETCHER ACCESS:    1035635  HIT:    1035635  MISS:          0  HIT %:        100  MISS %:          0   MPKI: 0
PSCL3 PREFETCH  REQUESTED:          0  ISSUED:          0  USEFUL:          0  USELESS:          0
PSCL3 USEFUL LOAD PREFETCHES:          0 PREFETCH ISSUED TO LOWER LEVEL:          0  ACCURACY: -nan
PSCL3 TIMELY PREFETCHES:          0 LATE PREFETCHES: 0 DROPPED PREFETCHES: 0
PSCL3 PREFETCHES SAME FILL-ORIGIN LEVEL: 0 DIFFERENT FILL-ORIGIN LEVEL: 0

PSCL2 TOTAL     ACCESS:    1040955  HIT:    1040941  MISS:         14  HIT %:    99.9987  MISS %: 0.00134492   MPKI: 7e-05
PSCL2 LOAD TRANSLATION ACCESS:       7247  HIT:       7233  MISS:         14  HIT %:    99.8068  MISS %:   0.193183   MPKI: 7e-05
PSCL2 TRANSLATION FROM L1D PREFETCHER ACCESS:    1033708  HIT:    1033708  MISS:          0  HIT %:        100  MISS %:          0   MPKI: 0
PSCL2 PREFETCH  REQUESTED:          0  ISSUED:          0  USEFUL:          0  USELESS:          0
PSCL2 USEFUL LOAD PREFETCHES:          0 PREFETCH ISSUED TO LOWER LEVEL:          0  ACCURACY: -nan
PSCL2 TIMELY PREFETCHES:          0 LATE PREFETCHES: 0 DROPPED PREFETCHES: 0
PSCL2 PREFETCHES SAME FILL-ORIGIN LEVEL: 0 DIFFERENT FILL-ORIGIN LEVEL: 0

LLC TOTAL     ACCESS:     933867  HIT:     296250  MISS:     637617  HIT %:    31.7229  MISS %:    68.2771   MPKI: 3.18808
LLC LOAD      ACCESS:       3448  HIT:          0  MISS:       3448  HIT %:          0  MISS %:        100   MPKI: 0.01724
LLC PREFETCH  ACCESS:     463044  HIT:          0  MISS:     463044  HIT %:          0  MISS %:        100   MPKI: 2.31522
LLC WRITEBACK ACCESS:     466448  HIT:     296250  MISS:     170198  HIT %:    63.5119  MISS %:    36.4881   MPKI: 0.85099
LLC LOAD TRANSLATION ACCESS:          1  HIT:          0  MISS:          1  HIT %:          0  MISS %:        100   MPKI: 5e-06
LLC TRANSLATION FROM L1D PREFETCHER ACCESS:        926  HIT:          0  MISS:        926  HIT %:          0  MISS %:        100   MPKI: 0.00463
LLC PREFETCH  REQUESTED:          0  ISSUED:          0  USEFUL:      67428  USELESS:   19851436
LLC USEFUL LOAD PREFETCHES:      67428 PREFETCH ISSUED TO LOWER LEVEL:   21201110  ACCURACY: 0.31804
LLC TIMELY PREFETCHES:      67428 LATE PREFETCHES: 0 DROPPED PREFETCHES: 0
LLC PREFETCHES SAME FILL-ORIGIN LEVEL: 0 DIFFERENT FILL-ORIGIN LEVEL: 0
LLC AVERAGE MISS LATENCY: 22002.7 cycles
LLC RQ	ACCESS:   18325074	FORWARD:          0	MERGED:          0	TO_CACHE:   18325064
LLC WQ	ACCESS:    8691675	FORWARD:         20	MERGED:          0	TO_CACHE:    8691675
LLC PQ	ACCESS:   20324305	FORWARD:          0	MERGED:          0	TO_CACHE:   20324295

LLC Dense regions hint to LLC: 0

RAW hits: 0
Loads Generated: 29853449
Loads sent to L1D: 29853448
Stores Generated: 4175864
Stores sent to L1D: 4175864
Major fault: 0 Minor fault: 9127
Allocated PAGES: 125973

DRAM Statistics
 CHANNEL 0
 RQ ROW_BUFFER_HIT:    5963924  ROW_BUFFER_MISS:   23155817
 DBUS_CONGESTED:        554
 WQ ROW_BUFFER_HIT:     824562  ROW_BUFFER_MISS:    7753730  FULL:          0

 AVG_CONGESTED_CYCLE: 5
 All warmup complete: 5
Channel 0 Bank busy for read cycles: 0
Channel 0 Bank busy for write cycles: 0
Channel 0
Rank 0
0banks busy for read cycles: 229361
0banks busy for write cycles: 1
1banks busy for read cycles: 27935573
1banks busy for write cycles: 986883
2banks busy for read cycles: 73965838
2banks busy for write cycles: 986661
3banks busy for read cycles: 109634263
3banks busy for write cycles: 985962
4banks busy for read cycles: 116348787
4banks busy for write cycles: 986673
5banks busy for read cycles: 106637480
5banks busy for write cycles: 1011979
6banks busy for read cycles: 96485212
6banks busy for write cycles: 2161801
7banks busy for read cycles: 99895906
7banks busy for write cycles: 26598442
8banks busy for read cycles: 157846025
8banks busy for write cycles: 194976622

CPU 0 Branch Prediction Accuracy: 96.4959% MPKI: 9.1201 Average ROB Occupancy at Mispredict: 60.0253
Branch types
NOT_BRANCH: 147945839 73.9729%
BRANCH_DIRECT_JUMP: 0 0%
BRANCH_INDIRECT: 0 0%
BRANCH_CONDITIONAL: 52053978 26.027%
BRANCH_DIRECT_CALL: 0 0%
BRANCH_INDIRECT_CALL: 0 0%
BRANCH_RETURN: 0 0%
BRANCH_OTHER: 0 0%


CPU 1 Branch Prediction Accuracy: 98.6703% MPKI: 3.73107 Average ROB Occupancy at Mispredict: 43.527
Branch types
NOT_BRANCH: 550772284 71.7903%
BRANCH_DIRECT_JUMP: 2870459 0.37415%
BRANCH_INDIRECT: 0 0%
BRANCH_CONDITIONAL: 213552791 27.8355%
BRANCH_DIRECT_CALL: 39 5.08345e-06%
BRANCH_INDIRECT_CALL: 0 0%
BRANCH_RETURN: 36 4.69241e-06%
BRANCH_OTHER: 0 0%


CPU 2 Branch Prediction Accuracy: 99.943% MPKI: 0.0255836 Average ROB Occupancy at Mispredict: 163.061
Branch types
NOT_BRANCH: 1130727632 95.484%
BRANCH_DIRECT_JUMP: 246262 0.0207955%
BRANCH_INDIRECT: 0 0%
BRANCH_CONDITIONAL: 53232912 4.49524%
BRANCH_DIRECT_CALL: 229 1.93378e-05%
BRANCH_INDIRECT_CALL: 0 0%
BRANCH_RETURN: 229 1.93378e-05%
BRANCH_OTHER: 0 0%


CPU 3 Branch Prediction Accuracy: 99.6828% MPKI: 1.01182 Average ROB Occupancy at Mispredict: 25.2204
Branch types
NOT_BRANCH: 809705950 68.0698%
BRANCH_DIRECT_JUMP: 0 0%
BRANCH_INDIRECT: 0 0%
BRANCH_CONDITIONAL: 379817493 31.9302%
BRANCH_DIRECT_CALL: 0 0%
BRANCH_INDIRECT_CALL: 0 0%
BRANCH_RETURN: 0 0%
BRANCH_OTHER: 0 0%

DRAM PAGES: 1048576
Allocated PAGES: 125973
