
*** ChampSim Multicore Out-of-Order Simulator ***

Warmup Instructions: 50000000
Simulation Instructions: 200000000
Number of CPUs: 4
LLC sets: 8192
LLC ways: 16
Off-chip DRAM Size: 4096 MB Channels: 1 Width: 64-bit Data Rate: 6400 MT/s
CPU 0 runs ./traces/ligra/ligra_PageRank.com-lj.ungraph.gcc_6.3.0_O3.drop_60750M.length_250M.champsimtrace.xz
.xz
CPU 1 runs ./traces/ligra/ligra_PageRank.com-lj.ungraph.gcc_6.3.0_O3.drop_60750M.length_250M.champsimtrace.xz
.xz
CPU 2 runs ./traces/ligra/ligra_PageRank.com-lj.ungraph.gcc_6.3.0_O3.drop_60750M.length_250M.champsimtrace.xz
.xz
CPU 3 runs ./traces/ligra/ligra_PageRank.com-lj.ungraph.gcc_6.3.0_O3.drop_60750M.length_250M.champsimtrace.xz
.xz
BTB has LRU replacement policy
ITLB has LRU replacement policy
DTLB has LRU replacement policy
STLB has LRU replacement policy
L1I has LRU replacement policy
History Sets: 8
History Ways: 16
BERTI Size: 16
BERTI Stride Size: 8
L1D has LRU replacement policy
Initialize SRRIP state for L2C
Initialize DRRIP state for LLC
BTB has LRU replacement policy
ITLB has LRU replacement policy
DTLB has LRU replacement policy
STLB has LRU replacement policy
L1I has LRU replacement policy
History Sets: 8
History Ways: 16
BERTI Size: 16
BERTI Stride Size: 8
L1D has LRU replacement policy
Initialize SRRIP state for L2C
Initialize DRRIP state for LLC
BTB has LRU replacement policy
ITLB has LRU replacement policy
DTLB has LRU replacement policy
STLB has LRU replacement policy
L1I has LRU replacement policy
History Sets: 8
History Ways: 16
BERTI Size: 16
BERTI Stride Size: 8
L1D has LRU replacement policy
Initialize SRRIP state for L2C
Initialize DRRIP state for LLC
BTB has LRU replacement policy
ITLB has LRU replacement policy
DTLB has LRU replacement policy
STLB has LRU replacement policy
L1I has LRU replacement policy
History Sets: 8
History Ways: 16
BERTI Size: 16
BERTI Stride Size: 8
L1D has LRU replacement policy
Initialize SRRIP state for L2C
Initialize DRRIP state for LLC
Heartbeat CPU 0 instructions: 10000001 cycles: 3310878 heartbeat IPC: 3.02035 cumulative IPC: 3.02035 (Simulation time: 0 hr 4 min 16 sec) 
Heartbeat CPU 1 instructions: 10000001 cycles: 3317640 heartbeat IPC: 3.01419 cumulative IPC: 3.01419 (Simulation time: 0 hr 4 min 17 sec) 
Heartbeat CPU 2 instructions: 10000001 cycles: 3320485 heartbeat IPC: 3.01161 cumulative IPC: 3.01161 (Simulation time: 0 hr 4 min 17 sec) 
Heartbeat CPU 3 instructions: 10000001 cycles: 3324285 heartbeat IPC: 3.00817 cumulative IPC: 3.00817 (Simulation time: 0 hr 4 min 18 sec) 
Heartbeat CPU 0 instructions: 20000000 cycles: 6627109 heartbeat IPC: 3.01547 cumulative IPC: 3.01791 (Simulation time: 0 hr 8 min 14 sec) 
Heartbeat CPU 1 instructions: 20000002 cycles: 6639552 heartbeat IPC: 3.01031 cumulative IPC: 3.01225 (Simulation time: 0 hr 8 min 15 sec) 
Heartbeat CPU 2 instructions: 20000002 cycles: 6645169 heartbeat IPC: 3.0078 cumulative IPC: 3.00971 (Simulation time: 0 hr 8 min 16 sec) 
Heartbeat CPU 3 instructions: 20000002 cycles: 6652127 heartbeat IPC: 3.00495 cumulative IPC: 3.00656 (Simulation time: 0 hr 8 min 16 sec) 
Heartbeat CPU 0 instructions: 30000000 cycles: 9896538 heartbeat IPC: 3.05864 cumulative IPC: 3.03136 (Simulation time: 0 hr 12 min 14 sec) 
Heartbeat CPU 1 instructions: 30000000 cycles: 9913620 heartbeat IPC: 3.0543 cumulative IPC: 3.02614 (Simulation time: 0 hr 12 min 15 sec) 
Heartbeat CPU 2 instructions: 30000000 cycles: 9920989 heartbeat IPC: 3.05267 cumulative IPC: 3.02389 (Simulation time: 0 hr 12 min 16 sec) 
Heartbeat CPU 3 instructions: 30000000 cycles: 9932756 heartbeat IPC: 3.0482 cumulative IPC: 3.02031 (Simulation time: 0 hr 12 min 17 sec) 
Heartbeat CPU 0 instructions: 40000000 cycles: 13158155 heartbeat IPC: 3.06596 cumulative IPC: 3.03994 (Simulation time: 0 hr 16 min 29 sec) 
Heartbeat CPU 1 instructions: 40000001 cycles: 13179813 heartbeat IPC: 3.06167 cumulative IPC: 3.03494 (Simulation time: 0 hr 16 min 31 sec) 
Heartbeat CPU 2 instructions: 40000001 cycles: 13188462 heartbeat IPC: 3.06047 cumulative IPC: 3.03295 (Simulation time: 0 hr 16 min 31 sec) 
Heartbeat CPU 3 instructions: 40000000 cycles: 13202371 heartbeat IPC: 3.05846 cumulative IPC: 3.02976 (Simulation time: 0 hr 16 min 32 sec) 
Heartbeat CPU 0 instructions: 50000000 cycles: 16399741 heartbeat IPC: 3.08491 cumulative IPC: 3.04883 (Simulation time: 0 hr 20 min 33 sec) 
Heartbeat CPU 1 instructions: 50000000 cycles: 16425705 heartbeat IPC: 3.08082 cumulative IPC: 3.04401 (Simulation time: 0 hr 20 min 35 sec) 
Heartbeat CPU 2 instructions: 50000000 cycles: 16438066 heartbeat IPC: 3.0773 cumulative IPC: 3.04172 (Simulation time: 0 hr 20 min 36 sec) 
Heartbeat CPU 3 instructions: 50000000 cycles: 16454727 heartbeat IPC: 3.07469 cumulative IPC: 3.03864 (Simulation time: 0 hr 20 min 37 sec) 

Warmup complete CPU 0 instructions: 50149594 cycles: 16454728 (Simulation time: 0 hr 20 min 37 sec) 
Warmup complete CPU 1 instructions: 50080156 cycles: 16454728 (Simulation time: 0 hr 20 min 37 sec) 
Warmup complete CPU 2 instructions: 50043390 cycles: 16454728 (Simulation time: 0 hr 20 min 37 sec) 
Warmup complete CPU 3 instructions: 50000004 cycles: 16454728 (Simulation time: 0 hr 20 min 37 sec) 

Heartbeat CPU 0 instructions: 60000001 cycles: 74660998 heartbeat IPC: 0.171641 cumulative IPC: 0.169233 (Simulation time: 0 hr 27 min 52 sec) 
Heartbeat CPU 1 instructions: 60000001 cycles: 75022827 heartbeat IPC: 0.170657 cumulative IPC: 0.169373 (Simulation time: 0 hr 27 min 54 sec) 
Heartbeat CPU 2 instructions: 60000001 cycles: 75061590 heartbeat IPC: 0.17058 cumulative IPC: 0.169888 (Simulation time: 0 hr 27 min 55 sec) 
Heartbeat CPU 3 instructions: 60000001 cycles: 75306140 heartbeat IPC: 0.169919 cumulative IPC: 0.169919 (Simulation time: 0 hr 27 min 56 sec) 
Heartbeat CPU 0 instructions: 70000001 cycles: 93208673 heartbeat IPC: 0.539151 cumulative IPC: 0.258624 (Simulation time: 0 hr 31 min 48 sec) 
Heartbeat CPU 1 instructions: 70000001 cycles: 93548544 heartbeat IPC: 0.53979 cumulative IPC: 0.258384 (Simulation time: 0 hr 31 min 52 sec) 
Heartbeat CPU 2 instructions: 70000001 cycles: 93907200 heartbeat IPC: 0.530628 cumulative IPC: 0.257663 (Simulation time: 0 hr 31 min 56 sec) 
Heartbeat CPU 3 instructions: 70000001 cycles: 94025047 heartbeat IPC: 0.534219 cumulative IPC: 0.257831 (Simulation time: 0 hr 31 min 58 sec) 
Heartbeat CPU 0 instructions: 80000001 cycles: 112817775 heartbeat IPC: 0.509967 cumulative IPC: 0.30977 (Simulation time: 0 hr 35 min 26 sec) 
Heartbeat CPU 1 instructions: 80000001 cycles: 113077066 heartbeat IPC: 0.512072 cumulative IPC: 0.309658 (Simulation time: 0 hr 35 min 29 sec) 
Heartbeat CPU 2 instructions: 80000001 cycles: 113549220 heartbeat IPC: 0.509113 cumulative IPC: 0.30853 (Simulation time: 0 hr 35 min 35 sec) 
Heartbeat CPU 3 instructions: 80000001 cycles: 113712137 heartbeat IPC: 0.507947 cumulative IPC: 0.30846 (Simulation time: 0 hr 35 min 36 sec) 
Heartbeat CPU 0 instructions: 90000001 cycles: 132529435 heartbeat IPC: 0.507314 cumulative IPC: 0.343317 (Simulation time: 0 hr 39 min 12 sec) 
Heartbeat CPU 1 instructions: 90000003 cycles: 132766996 heartbeat IPC: 0.507874 cumulative IPC: 0.343213 (Simulation time: 0 hr 39 min 15 sec) 
Heartbeat CPU 2 instructions: 90000000 cycles: 133207711 heartbeat IPC: 0.508686 cumulative IPC: 0.342232 (Simulation time: 0 hr 39 min 21 sec) 
Heartbeat CPU 3 instructions: 90000001 cycles: 133334282 heartbeat IPC: 0.509628 cumulative IPC: 0.342233 (Simulation time: 0 hr 39 min 23 sec) 
Heartbeat CPU 0 instructions: 100000001 cycles: 153267891 heartbeat IPC: 0.482196 cumulative IPC: 0.364368 (Simulation time: 0 hr 43 min 33 sec) 
Heartbeat CPU 1 instructions: 100000001 cycles: 153753949 heartbeat IPC: 0.476486 cumulative IPC: 0.363584 (Simulation time: 0 hr 43 min 40 sec) 
Heartbeat CPU 2 instructions: 100000001 cycles: 154132853 heartbeat IPC: 0.477894 cumulative IPC: 0.362851 (Simulation time: 0 hr 43 min 45 sec) 
Heartbeat CPU 3 instructions: 100000001 cycles: 154266747 heartbeat IPC: 0.477727 cumulative IPC: 0.362813 (Simulation time: 0 hr 43 min 46 sec) 
Heartbeat CPU 0 instructions: 110000000 cycles: 202717711 heartbeat IPC: 0.202225 cumulative IPC: 0.321322 (Simulation time: 0 hr 50 min 21 sec) 
Heartbeat CPU 1 instructions: 110000000 cycles: 203338538 heartbeat IPC: 0.201676 cumulative IPC: 0.320626 (Simulation time: 0 hr 50 min 25 sec) 
Heartbeat CPU 2 instructions: 110000000 cycles: 203493200 heartbeat IPC: 0.202592 cumulative IPC: 0.320558 (Simulation time: 0 hr 50 min 26 sec) 
Heartbeat CPU 3 instructions: 110000000 cycles: 204231406 heartbeat IPC: 0.200141 cumulative IPC: 0.319528 (Simulation time: 0 hr 50 min 30 sec) 
Heartbeat CPU 0 instructions: 120000002 cycles: 274886214 heartbeat IPC: 0.138565 cumulative IPC: 0.270286 (Simulation time: 0 hr 58 min 50 sec) 
Heartbeat CPU 2 instructions: 120000002 cycles: 275864346 heartbeat IPC: 0.138177 cumulative IPC: 0.269676 (Simulation time: 0 hr 58 min 58 sec) 
Heartbeat CPU 1 instructions: 120000000 cycles: 276089949 heartbeat IPC: 0.137454 cumulative IPC: 0.2693 (Simulation time: 0 hr 59 min 0 sec) 
Heartbeat CPU 3 instructions: 120000002 cycles: 276400739 heartbeat IPC: 0.138563 cumulative IPC: 0.269287 (Simulation time: 0 hr 59 min 3 sec) 
Heartbeat CPU 0 instructions: 130000000 cycles: 319171355 heartbeat IPC: 0.225809 cumulative IPC: 0.263779 (Simulation time: 1 hr 7 min 23 sec) 
Heartbeat CPU 2 instructions: 130000000 cycles: 319591429 heartbeat IPC: 0.228691 cumulative IPC: 0.263764 (Simulation time: 1 hr 7 min 30 sec) 
Heartbeat CPU 1 instructions: 130000000 cycles: 319665105 heartbeat IPC: 0.229489 cumulative IPC: 0.263579 (Simulation time: 1 hr 7 min 31 sec) 
Heartbeat CPU 3 instructions: 130000000 cycles: 319848275 heartbeat IPC: 0.230163 cumulative IPC: 0.263684 (Simulation time: 1 hr 7 min 34 sec) 
Heartbeat CPU 0 instructions: 140000000 cycles: 349565046 heartbeat IPC: 0.329016 cumulative IPC: 0.269732 (Simulation time: 1 hr 15 min 20 sec) 
Heartbeat CPU 2 instructions: 140000000 cycles: 350061092 heartbeat IPC: 0.328195 cumulative IPC: 0.269649 (Simulation time: 1 hr 15 min 34 sec) 
Heartbeat CPU 1 instructions: 140000000 cycles: 350138242 heartbeat IPC: 0.328158 cumulative IPC: 0.269476 (Simulation time: 1 hr 15 min 36 sec) 
Heartbeat CPU 3 instructions: 140000000 cycles: 350479020 heartbeat IPC: 0.326469 cumulative IPC: 0.269441 (Simulation time: 1 hr 15 min 45 sec) 
Heartbeat CPU 0 instructions: 150000002 cycles: 377629759 heartbeat IPC: 0.356319 cumulative IPC: 0.27646 (Simulation time: 1 hr 26 min 55 sec) 
Heartbeat CPU 2 instructions: 150000002 cycles: 378871503 heartbeat IPC: 0.347097 cumulative IPC: 0.275806 (Simulation time: 1 hr 27 min 27 sec) 
Heartbeat CPU 1 instructions: 150000002 cycles: 379533834 heartbeat IPC: 0.340187 cumulative IPC: 0.275201 (Simulation time: 1 hr 27 min 43 sec) 
Heartbeat CPU 3 instructions: 150000002 cycles: 380741129 heartbeat IPC: 0.330446 cumulative IPC: 0.274509 (Simulation time: 1 hr 28 min 10 sec) 
Heartbeat CPU 0 instructions: 160000001 cycles: 408888062 heartbeat IPC: 0.319915 cumulative IPC: 0.279921 (Simulation time: 1 hr 39 min 44 sec) 
Heartbeat CPU 2 instructions: 160000001 cycles: 409864556 heartbeat IPC: 0.322653 cumulative IPC: 0.279496 (Simulation time: 1 hr 40 min 3 sec) 
Heartbeat CPU 1 instructions: 160000001 cycles: 410668471 heartbeat IPC: 0.321186 cumulative IPC: 0.278833 (Simulation time: 1 hr 40 min 19 sec) 
Heartbeat CPU 3 instructions: 160000001 cycles: 411819328 heartbeat IPC: 0.321769 cumulative IPC: 0.278224 (Simulation time: 1 hr 40 min 44 sec) 
Heartbeat CPU 0 instructions: 170000001 cycles: 435809889 heartbeat IPC: 0.371446 cumulative IPC: 0.285797 (Simulation time: 1 hr 50 min 26 sec) 
Heartbeat CPU 2 instructions: 170000001 cycles: 435831870 heartbeat IPC: 0.3851 cumulative IPC: 0.286035 (Simulation time: 1 hr 50 min 26 sec) 
Heartbeat CPU 1 instructions: 170000000 cycles: 436106237 heartbeat IPC: 0.393116 cumulative IPC: 0.285761 (Simulation time: 1 hr 50 min 32 sec) 
Heartbeat CPU 3 instructions: 170000001 cycles: 436442494 heartbeat IPC: 0.406122 cumulative IPC: 0.285723 (Simulation time: 1 hr 50 min 38 sec) 
Heartbeat CPU 2 instructions: 180000001 cycles: 445943411 heartbeat IPC: 0.988969 cumulative IPC: 0.302584 (Simulation time: 1 hr 54 min 25 sec) 
Heartbeat CPU 0 instructions: 180000001 cycles: 446013898 heartbeat IPC: 0.980007 cumulative IPC: 0.302288 (Simulation time: 1 hr 54 min 27 sec) 
Heartbeat CPU 1 instructions: 180000001 cycles: 446072557 heartbeat IPC: 1.00338 cumulative IPC: 0.302408 (Simulation time: 1 hr 54 min 29 sec) 
Heartbeat CPU 3 instructions: 180000001 cycles: 446358429 heartbeat IPC: 1.00848 cumulative IPC: 0.302393 (Simulation time: 1 hr 54 min 38 sec) 
Heartbeat CPU 2 instructions: 190000003 cycles: 452847212 heartbeat IPC: 1.44848 cumulative IPC: 0.320713 (Simulation time: 1 hr 58 min 55 sec) 
Heartbeat CPU 0 instructions: 190000000 cycles: 452937609 heartbeat IPC: 1.44431 cumulative IPC: 0.320403 (Simulation time: 1 hr 58 min 58 sec) 
Heartbeat CPU 1 instructions: 190000001 cycles: 453010923 heartbeat IPC: 1.44126 cumulative IPC: 0.320508 (Simulation time: 1 hr 59 min 0 sec) 
Heartbeat CPU 3 instructions: 190000000 cycles: 453264227 heartbeat IPC: 1.44806 cumulative IPC: 0.320506 (Simulation time: 1 hr 59 min 9 sec) 
Heartbeat CPU 2 instructions: 200000001 cycles: 460819703 heartbeat IPC: 1.25431 cumulative IPC: 0.337463 (Simulation time: 2 hr 3 min 31 sec) 
Heartbeat CPU 0 instructions: 200000001 cycles: 460848998 heartbeat IPC: 1.264 cumulative IPC: 0.337201 (Simulation time: 2 hr 3 min 31 sec) 
Heartbeat CPU 1 instructions: 200000001 cycles: 460986919 heartbeat IPC: 1.25376 cumulative IPC: 0.337253 (Simulation time: 2 hr 3 min 34 sec) 
Heartbeat CPU 3 instructions: 200000001 cycles: 461225733 heartbeat IPC: 1.25604 cumulative IPC: 0.337252 (Simulation time: 2 hr 3 min 39 sec) 
Heartbeat CPU 2 instructions: 210000002 cycles: 470743409 heartbeat IPC: 1.00769 cumulative IPC: 0.352103 (Simulation time: 2 hr 8 min 42 sec) 
Heartbeat CPU 0 instructions: 210000003 cycles: 470749823 heartbeat IPC: 1.01002 cumulative IPC: 0.351865 (Simulation time: 2 hr 8 min 42 sec) 
Heartbeat CPU 1 instructions: 210000002 cycles: 470933840 heartbeat IPC: 1.00534 cumulative IPC: 0.351875 (Simulation time: 2 hr 8 min 49 sec) 
Heartbeat CPU 3 instructions: 210000002 cycles: 471234396 heartbeat IPC: 0.999135 cumulative IPC: 0.351819 (Simulation time: 2 hr 8 min 58 sec) 
Heartbeat CPU 2 instructions: 220000000 cycles: 480760790 heartbeat IPC: 0.998265 cumulative IPC: 0.366044 (Simulation time: 2 hr 13 min 58 sec) 
Heartbeat CPU 0 instructions: 220000000 cycles: 480883949 heartbeat IPC: 0.986765 cumulative IPC: 0.365719 (Simulation time: 2 hr 14 min 1 sec) 
Heartbeat CPU 1 instructions: 220000000 cycles: 481050212 heartbeat IPC: 0.988496 cumulative IPC: 0.365737 (Simulation time: 2 hr 14 min 5 sec) 
Heartbeat CPU 3 instructions: 220000000 cycles: 481279916 heartbeat IPC: 0.995468 cumulative IPC: 0.365729 (Simulation time: 2 hr 14 min 12 sec) 
Heartbeat CPU 2 instructions: 230000001 cycles: 492986392 heartbeat IPC: 0.817956 cumulative IPC: 0.377638 (Simulation time: 2 hr 19 min 21 sec) 
Heartbeat CPU 0 instructions: 230000001 cycles: 493207436 heartbeat IPC: 0.811459 cumulative IPC: 0.37724 (Simulation time: 2 hr 19 min 27 sec) 
Heartbeat CPU 1 instructions: 230000001 cycles: 493470252 heartbeat IPC: 0.80515 cumulative IPC: 0.377178 (Simulation time: 2 hr 19 min 33 sec) 
Heartbeat CPU 3 instructions: 230000001 cycles: 493500922 heartbeat IPC: 0.818263 cumulative IPC: 0.377322 (Simulation time: 2 hr 19 min 34 sec) 
Heartbeat CPU 2 instructions: 240000003 cycles: 507438774 heartbeat IPC: 0.691928 cumulative IPC: 0.38689 (Simulation time: 2 hr 24 min 37 sec) 
Heartbeat CPU 0 instructions: 240000003 cycles: 507830099 heartbeat IPC: 0.68387 cumulative IPC: 0.386365 (Simulation time: 2 hr 24 min 45 sec) 
Heartbeat CPU 3 instructions: 240000003 cycles: 508139723 heartbeat IPC: 0.683116 cumulative IPC: 0.386426 (Simulation time: 2 hr 24 min 52 sec) 
Heartbeat CPU 1 instructions: 240000003 cycles: 508168127 heartbeat IPC: 0.680371 cumulative IPC: 0.386241 (Simulation time: 2 hr 24 min 53 sec) 
*** Reached end of trace for Core: 2 Repeating trace: ./traces/ligra/ligra_PageRank.com-lj.ungraph.gcc_6.3.0_O3.drop_60750M.length_250M.champsimtrace.xz
Heartbeat CPU 2 instructions: 250000002 cycles: 527252492 heartbeat IPC: 0.504701 cumulative IPC: 0.391459 (Simulation time: 2 hr 30 min 19 sec) 
*** Reached end of trace for Core: 0 Repeating trace: ./traces/ligra/ligra_PageRank.com-lj.ungraph.gcc_6.3.0_O3.drop_60750M.length_250M.champsimtrace.xz
Heartbeat CPU 0 instructions: 250000002 cycles: 527491498 heartbeat IPC: 0.508611 cumulative IPC: 0.391069 (Simulation time: 2 hr 30 min 23 sec) 
Finished CPU 2 instructions: 200000000 cycles: 511237111 cumulative IPC: 0.391208 (Simulation time: 2 hr 30 min 25 sec) 
*** Reached end of trace for Core: 3 Repeating trace: ./traces/ligra/ligra_PageRank.com-lj.ungraph.gcc_6.3.0_O3.drop_60750M.length_250M.champsimtrace.xz
Heartbeat CPU 3 instructions: 250000002 cycles: 528065896 heartbeat IPC: 0.501852 cumulative IPC: 0.390922 (Simulation time: 2 hr 30 min 29 sec) 
Finished CPU 3 instructions: 200000000 cycles: 511611461 cumulative IPC: 0.390922 (Simulation time: 2 hr 30 min 29 sec) 
*** Reached end of trace for Core: 1 Repeating trace: ./traces/ligra/ligra_PageRank.com-lj.ungraph.gcc_6.3.0_O3.drop_60750M.length_250M.champsimtrace.xz
Heartbeat CPU 1 instructions: 250000002 cycles: 528233214 heartbeat IPC: 0.498378 cumulative IPC: 0.390637 (Simulation time: 2 hr 30 min 31 sec) 
Finished CPU 0 instructions: 200000003 cycles: 512352098 cumulative IPC: 0.390357 (Simulation time: 2 hr 30 min 34 sec) 
Finished CPU 1 instructions: 200000001 cycles: 512635668 cumulative IPC: 0.390141 (Simulation time: 2 hr 30 min 36 sec) 

ChampSim completed all CPUs

Total Simulation Statistics (not including warmup)

CPU 0 cumulative IPC: 0.390208 instructions: 200034760 cycles: 512635668
ITLB TOTAL     ACCESS:   31246794  HIT:   31246785  MISS:          9  HIT %:        100  MISS %: 2.8803e-05   MPKI: 4.49922e-05
ITLB LOAD      ACCESS:          0  HIT:          0  MISS:          0  HIT %:       -nan  MISS %:       -nan   MPKI: 0
ITLB RFO       ACCESS:          0  HIT:          0  MISS:          0  HIT %:       -nan  MISS %:       -nan   MPKI: 0
ITLB PREFETCH  ACCESS:          0  HIT:          0  MISS:          0  HIT %:       -nan  MISS %:       -nan   MPKI: 0
ITLB WRITEBACK ACCESS:          0  HIT:          0  MISS:          0  HIT %:       -nan  MISS %:       -nan   MPKI: 0
DTLB TOTAL     ACCESS:   42707380  HIT:   37911025  MISS:    4796355  HIT %:    88.7693  MISS %:    11.2307   MPKI: 23.9776
DTLB LOAD      ACCESS:          0  HIT:          0  MISS:          0  HIT %:       -nan  MISS %:       -nan   MPKI: 0
DTLB RFO       ACCESS:          0  HIT:          0  MISS:          0  HIT %:       -nan  MISS %:       -nan   MPKI: 0
DTLB PREFETCH  ACCESS:          0  HIT:          0  MISS:          0  HIT %:       -nan  MISS %:       -nan   MPKI: 0
DTLB WRITEBACK ACCESS:          0  HIT:          0  MISS:          0  HIT %:       -nan  MISS %:       -nan   MPKI: 0
STLB TOTAL     ACCESS:   16798632  HIT:   16418671  MISS:     379961  HIT %:    97.7381  MISS %:    2.26186   MPKI: 1.89947
STLB LOAD      ACCESS:          0  HIT:          0  MISS:          0  HIT %:       -nan  MISS %:       -nan   MPKI: 0
STLB RFO       ACCESS:          0  HIT:          0  MISS:          0  HIT %:       -nan  MISS %:       -nan   MPKI: 0
STLB PREFETCH  ACCESS:          0  HIT:          0  MISS:          0  HIT %:       -nan  MISS %:       -nan   MPKI: 0
STLB WRITEBACK ACCESS:          0  HIT:          0  MISS:          0  HIT %:       -nan  MISS %:       -nan   MPKI: 0
L1D TOTAL     ACCESS:   85631848  HIT:   74993673  MISS:   10638175  HIT %:    87.5768  MISS %:    12.4232   MPKI: 53.1816
L1D LOAD      ACCESS:   31313246  HIT:   22297508  MISS:    9015738  HIT %:    71.2079  MISS %:    28.7921   MPKI: 45.0709
L1D RFO       ACCESS:   10608814  HIT:   10103732  MISS:     505082  HIT %:     95.239  MISS %:    4.76097   MPKI: 2.52497
L1D PREFETCH  ACCESS:   43709788  HIT:   42592433  MISS:    1117355  HIT %:    97.4437  MISS %:     2.5563   MPKI: 5.5858
L1D WRITEBACK ACCESS:          0  HIT:          0  MISS:          0  HIT %:       -nan  MISS %:       -nan   MPKI: 0
L1I TOTAL     ACCESS:   34388652  HIT:   34388556  MISS:         96  HIT %:    99.9997  MISS %: 0.000279162   MPKI: 0.000479917
L1I LOAD      ACCESS:   34388652  HIT:   34388556  MISS:         96  HIT %:    99.9997  MISS %: 0.000279162   MPKI: 0.000479917
L1I RFO       ACCESS:          0  HIT:          0  MISS:          0  HIT %:       -nan  MISS %:       -nan   MPKI: 0
L1I PREFETCH  ACCESS:          0  HIT:          0  MISS:          0  HIT %:       -nan  MISS %:       -nan   MPKI: 0
L1I WRITEBACK ACCESS:          0  HIT:          0  MISS:          0  HIT %:       -nan  MISS %:       -nan   MPKI: 0
L2C TOTAL     ACCESS:   18388488  HIT:   12034988  MISS:    6353500  HIT %:    65.4485  MISS %:    34.5515   MPKI: 31.762
L2C LOAD      ACCESS:    8979494  HIT:    5471729  MISS:    3507765  HIT %:    60.9358  MISS %:    39.0642   MPKI: 17.5358
L2C RFO       ACCESS:     505082  HIT:          0  MISS:     505082  HIT %:          0  MISS %:        100   MPKI: 2.52497
L2C PREFETCH  ACCESS:    6511897  HIT:    4407534  MISS:    2104363  HIT %:    67.6843  MISS %:    32.3157   MPKI: 10.52
L2C WRITEBACK ACCESS:    1559507  HIT:    1442830  MISS:     116677  HIT %:    92.5183  MISS %:    7.48166   MPKI: 0.583284
PSCL5 TOTAL     ACCESS:     678029  HIT:     678029  MISS:          0  HIT %:        100  MISS %:          0   MPKI: 0
PSCL5 LOAD      ACCESS:          0  HIT:          0  MISS:          0  HIT %:       -nan  MISS %:       -nan   MPKI: 0
PSCL5 RFO       ACCESS:          0  HIT:          0  MISS:          0  HIT %:       -nan  MISS %:       -nan   MPKI: 0
PSCL5 PREFETCH  ACCESS:          0  HIT:          0  MISS:          0  HIT %:       -nan  MISS %:       -nan   MPKI: 0
PSCL5 WRITEBACK ACCESS:          0  HIT:          0  MISS:          0  HIT %:       -nan  MISS %:       -nan   MPKI: 0
PSCL4 TOTAL     ACCESS:     678023  HIT:     678023  MISS:          0  HIT %:        100  MISS %:          0   MPKI: 0
PSCL4 LOAD      ACCESS:          0  HIT:          0  MISS:          0  HIT %:       -nan  MISS %:       -nan   MPKI: 0
PSCL4 RFO       ACCESS:          0  HIT:          0  MISS:          0  HIT %:       -nan  MISS %:       -nan   MPKI: 0
PSCL4 PREFETCH  ACCESS:          0  HIT:          0  MISS:          0  HIT %:       -nan  MISS %:       -nan   MPKI: 0
PSCL4 WRITEBACK ACCESS:          0  HIT:          0  MISS:          0  HIT %:       -nan  MISS %:       -nan   MPKI: 0
PSCL3 TOTAL     ACCESS:     678023  HIT:     678023  MISS:          0  HIT %:        100  MISS %:          0   MPKI: 0
PSCL3 LOAD      ACCESS:          0  HIT:          0  MISS:          0  HIT %:       -nan  MISS %:       -nan   MPKI: 0
PSCL3 RFO       ACCESS:          0  HIT:          0  MISS:          0  HIT %:       -nan  MISS %:       -nan   MPKI: 0
PSCL3 PREFETCH  ACCESS:          0  HIT:          0  MISS:          0  HIT %:       -nan  MISS %:       -nan   MPKI: 0
PSCL3 WRITEBACK ACCESS:          0  HIT:          0  MISS:          0  HIT %:       -nan  MISS %:       -nan   MPKI: 0
PSCL2 TOTAL     ACCESS:     613593  HIT:     523017  MISS:      90576  HIT %:    85.2384  MISS %:    14.7616   MPKI: 0.452801
PSCL2 LOAD      ACCESS:          0  HIT:          0  MISS:          0  HIT %:       -nan  MISS %:       -nan   MPKI: 0
PSCL2 RFO       ACCESS:          0  HIT:          0  MISS:          0  HIT %:       -nan  MISS %:       -nan   MPKI: 0
PSCL2 PREFETCH  ACCESS:          0  HIT:          0  MISS:          0  HIT %:       -nan  MISS %:       -nan   MPKI: 0
PSCL2 WRITEBACK ACCESS:          0  HIT:          0  MISS:          0  HIT %:       -nan  MISS %:       -nan   MPKI: 0
LLC TOTAL     ACCESS:    7796453  HIT:    3881309  MISS:    3915144  HIT %:     49.783  MISS %:     50.217   MPKI: 19.5723
LLC LOAD      ACCESS:    3029951  HIT:    2240580  MISS:     789371  HIT %:    73.9477  MISS %:    26.0523   MPKI: 3.94617
LLC RFO       ACCESS:     505082  HIT:          0  MISS:     505082  HIT %:          0  MISS %:        100   MPKI: 2.52497
LLC PREFETCH  ACCESS:    2582177  HIT:      41207  MISS:    2540970  HIT %:    1.59582  MISS %:    98.4042   MPKI: 12.7026
LLC WRITEBACK ACCESS:    1559630  HIT:    1493888  MISS:      65742  HIT %:    95.7848  MISS %:    4.21523   MPKI: 0.328653

RAW hits: 3570613
Loads Generated: 60317829
Loads sent to L1D: 56747214
Stores Generated: 14730241
Stores sent to L1D: 14730238

CPU 1 cumulative IPC: 0.390141 instructions: 200000001 cycles: 512635668
ITLB TOTAL     ACCESS:   31223819  HIT:   31223810  MISS:          9  HIT %:        100  MISS %: 2.88241e-05   MPKI: 4.5e-05
ITLB LOAD      ACCESS:          0  HIT:          0  MISS:          0  HIT %:       -nan  MISS %:       -nan   MPKI: 0
ITLB RFO       ACCESS:          0  HIT:          0  MISS:          0  HIT %:       -nan  MISS %:       -nan   MPKI: 0
ITLB PREFETCH  ACCESS:          0  HIT:          0  MISS:          0  HIT %:       -nan  MISS %:       -nan   MPKI: 0
ITLB WRITEBACK ACCESS:          0  HIT:          0  MISS:          0  HIT %:       -nan  MISS %:       -nan   MPKI: 0
DTLB TOTAL     ACCESS:   42648541  HIT:   37855831  MISS:    4792710  HIT %:    88.7623  MISS %:    11.2377   MPKI: 23.9635
DTLB LOAD      ACCESS:          0  HIT:          0  MISS:          0  HIT %:       -nan  MISS %:       -nan   MPKI: 0
DTLB RFO       ACCESS:          0  HIT:          0  MISS:          0  HIT %:       -nan  MISS %:       -nan   MPKI: 0
DTLB PREFETCH  ACCESS:          0  HIT:          0  MISS:          0  HIT %:       -nan  MISS %:       -nan   MPKI: 0
DTLB WRITEBACK ACCESS:          0  HIT:          0  MISS:          0  HIT %:       -nan  MISS %:       -nan   MPKI: 0
STLB TOTAL     ACCESS:   16774989  HIT:   16397440  MISS:     377549  HIT %:    97.7493  MISS %:    2.25067   MPKI: 1.88774
STLB LOAD      ACCESS:          0  HIT:          0  MISS:          0  HIT %:       -nan  MISS %:       -nan   MPKI: 0
STLB RFO       ACCESS:          0  HIT:          0  MISS:          0  HIT %:       -nan  MISS %:       -nan   MPKI: 0
STLB PREFETCH  ACCESS:          0  HIT:          0  MISS:          0  HIT %:       -nan  MISS %:       -nan   MPKI: 0
STLB WRITEBACK ACCESS:          0  HIT:          0  MISS:          0  HIT %:       -nan  MISS %:       -nan   MPKI: 0
L1D TOTAL     ACCESS:   85550937  HIT:   74922353  MISS:   10628584  HIT %:    87.5763  MISS %:    12.4237   MPKI: 53.1429
L1D LOAD      ACCESS:   31286810  HIT:   22280233  MISS:    9006577  HIT %:    71.2129  MISS %:    28.7871   MPKI: 45.0329
L1D RFO       ACCESS:   10592792  HIT:   10087710  MISS:     505082  HIT %:    95.2318  MISS %:    4.76817   MPKI: 2.52541
L1D PREFETCH  ACCESS:   43671335  HIT:   42554410  MISS:    1116925  HIT %:    97.4424  MISS %:    2.55757   MPKI: 5.58462
L1D WRITEBACK ACCESS:          0  HIT:          0  MISS:          0  HIT %:       -nan  MISS %:       -nan   MPKI: 0
L1I TOTAL     ACCESS:   34339578  HIT:   34339482  MISS:         96  HIT %:    99.9997  MISS %: 0.000279561   MPKI: 0.00048
L1I LOAD      ACCESS:   34339578  HIT:   34339482  MISS:         96  HIT %:    99.9997  MISS %: 0.000279561   MPKI: 0.00048
L1I RFO       ACCESS:          0  HIT:          0  MISS:          0  HIT %:       -nan  MISS %:       -nan   MPKI: 0
L1I PREFETCH  ACCESS:          0  HIT:          0  MISS:          0  HIT %:       -nan  MISS %:       -nan   MPKI: 0
L1I WRITEBACK ACCESS:          0  HIT:          0  MISS:          0  HIT %:       -nan  MISS %:       -nan   MPKI: 0
L2C TOTAL     ACCESS:   18281598  HIT:   11923199  MISS:    6358399  HIT %:    65.2197  MISS %:    34.7803   MPKI: 31.792
L2C LOAD      ACCESS:    8969808  HIT:    5465252  MISS:    3504556  HIT %:    60.9294  MISS %:    39.0706   MPKI: 17.5228
L2C RFO       ACCESS:     505082  HIT:          0  MISS:     505082  HIT %:          0  MISS %:        100   MPKI: 2.52541
L2C PREFETCH  ACCESS:    6416424  HIT:    4310721  MISS:    2105703  HIT %:    67.1826  MISS %:    32.8174   MPKI: 10.5285
L2C WRITEBACK ACCESS:    1559453  HIT:    1437968  MISS:     121485  HIT %:    92.2098  MISS %:    7.79023   MPKI: 0.607425
PSCL5 TOTAL     ACCESS:     675423  HIT:     675423  MISS:          0  HIT %:        100  MISS %:          0   MPKI: 0
PSCL5 LOAD      ACCESS:          0  HIT:          0  MISS:          0  HIT %:       -nan  MISS %:       -nan   MPKI: 0
PSCL5 RFO       ACCESS:          0  HIT:          0  MISS:          0  HIT %:       -nan  MISS %:       -nan   MPKI: 0
PSCL5 PREFETCH  ACCESS:          0  HIT:          0  MISS:          0  HIT %:       -nan  MISS %:       -nan   MPKI: 0
PSCL5 WRITEBACK ACCESS:          0  HIT:          0  MISS:          0  HIT %:       -nan  MISS %:       -nan   MPKI: 0
PSCL4 TOTAL     ACCESS:     675417  HIT:     675417  MISS:          0  HIT %:        100  MISS %:          0   MPKI: 0
PSCL4 LOAD      ACCESS:          0  HIT:          0  MISS:          0  HIT %:       -nan  MISS %:       -nan   MPKI: 0
PSCL4 RFO       ACCESS:          0  HIT:          0  MISS:          0  HIT %:       -nan  MISS %:       -nan   MPKI: 0
PSCL4 PREFETCH  ACCESS:          0  HIT:          0  MISS:          0  HIT %:       -nan  MISS %:       -nan   MPKI: 0
PSCL4 WRITEBACK ACCESS:          0  HIT:          0  MISS:          0  HIT %:       -nan  MISS %:       -nan   MPKI: 0
PSCL3 TOTAL     ACCESS:     675417  HIT:     675417  MISS:          0  HIT %:        100  MISS %:          0   MPKI: 0
PSCL3 LOAD      ACCESS:          0  HIT:          0  MISS:          0  HIT %:       -nan  MISS %:       -nan   MPKI: 0
PSCL3 RFO       ACCESS:          0  HIT:          0  MISS:          0  HIT %:       -nan  MISS %:       -nan   MPKI: 0
PSCL3 PREFETCH  ACCESS:          0  HIT:          0  MISS:          0  HIT %:       -nan  MISS %:       -nan   MPKI: 0
PSCL3 WRITEBACK ACCESS:          0  HIT:          0  MISS:          0  HIT %:       -nan  MISS %:       -nan   MPKI: 0
PSCL2 TOTAL     ACCESS:     609560  HIT:     519520  MISS:      90040  HIT %:    85.2287  MISS %:    14.7713   MPKI: 0.4502
PSCL2 LOAD      ACCESS:          0  HIT:          0  MISS:          0  HIT %:       -nan  MISS %:       -nan   MPKI: 0
PSCL2 RFO       ACCESS:          0  HIT:          0  MISS:          0  HIT %:       -nan  MISS %:       -nan   MPKI: 0
PSCL2 PREFETCH  ACCESS:          0  HIT:          0  MISS:          0  HIT %:       -nan  MISS %:       -nan   MPKI: 0
PSCL2 WRITEBACK ACCESS:          0  HIT:          0  MISS:          0  HIT %:       -nan  MISS %:       -nan   MPKI: 0
LLC TOTAL     ACCESS:    7796564  HIT:    3883179  MISS:    3913385  HIT %:    49.8063  MISS %:    50.1937   MPKI: 19.5669
LLC LOAD      ACCESS:    3027621  HIT:    2238350  MISS:     789271  HIT %:     73.931  MISS %:     26.069   MPKI: 3.94635
LLC RFO       ACCESS:     505082  HIT:          0  MISS:     505082  HIT %:          0  MISS %:        100   MPKI: 2.52541
LLC PREFETCH  ACCESS:    2582638  HIT:      41212  MISS:    2541426  HIT %:    1.59573  MISS %:    98.4043   MPKI: 12.7071
LLC WRITEBACK ACCESS:    1559650  HIT:    1495226  MISS:      64424  HIT %:    95.8693  MISS %:    4.13067   MPKI: 0.32212

RAW hits: 3571772
Loads Generated: 60304258
Loads sent to L1D: 56732486
Stores Generated: 14728708
Stores sent to L1D: 14728710

CPU 2 cumulative IPC: 0.390481 instructions: 200174538 cycles: 512635668
ITLB TOTAL     ACCESS:   31256925  HIT:   31256916  MISS:          9  HIT %:        100  MISS %: 2.87936e-05   MPKI: 4.49608e-05
ITLB LOAD      ACCESS:          0  HIT:          0  MISS:          0  HIT %:       -nan  MISS %:       -nan   MPKI: 0
ITLB RFO       ACCESS:          0  HIT:          0  MISS:          0  HIT %:       -nan  MISS %:       -nan   MPKI: 0
ITLB PREFETCH  ACCESS:          0  HIT:          0  MISS:          0  HIT %:       -nan  MISS %:       -nan   MPKI: 0
ITLB WRITEBACK ACCESS:          0  HIT:          0  MISS:          0  HIT %:       -nan  MISS %:       -nan   MPKI: 0
DTLB TOTAL     ACCESS:   42706573  HIT:   37905082  MISS:    4801491  HIT %:     88.757  MISS %:     11.243   MPKI: 23.9865
DTLB LOAD      ACCESS:          0  HIT:          0  MISS:          0  HIT %:       -nan  MISS %:       -nan   MPKI: 0
DTLB RFO       ACCESS:          0  HIT:          0  MISS:          0  HIT %:       -nan  MISS %:       -nan   MPKI: 0
DTLB PREFETCH  ACCESS:          0  HIT:          0  MISS:          0  HIT %:       -nan  MISS %:       -nan   MPKI: 0
DTLB WRITEBACK ACCESS:          0  HIT:          0  MISS:          0  HIT %:       -nan  MISS %:       -nan   MPKI: 0
STLB TOTAL     ACCESS:   16771326  HIT:   16387481  MISS:     383845  HIT %:    97.7113  MISS %:     2.2887   MPKI: 1.91755
STLB LOAD      ACCESS:          0  HIT:          0  MISS:          0  HIT %:       -nan  MISS %:       -nan   MPKI: 0
STLB RFO       ACCESS:          0  HIT:          0  MISS:          0  HIT %:       -nan  MISS %:       -nan   MPKI: 0
STLB PREFETCH  ACCESS:          0  HIT:          0  MISS:          0  HIT %:       -nan  MISS %:       -nan   MPKI: 0
STLB WRITEBACK ACCESS:          0  HIT:          0  MISS:          0  HIT %:       -nan  MISS %:       -nan   MPKI: 0
L1D TOTAL     ACCESS:   85602140  HIT:   74962385  MISS:   10639755  HIT %:    87.5707  MISS %:    12.4293   MPKI: 53.1524
L1D LOAD      ACCESS:   31320678  HIT:   22296333  MISS:    9024345  HIT %:    71.1873  MISS %:    28.8127   MPKI: 45.0824
L1D RFO       ACCESS:   10613970  HIT:   10108888  MISS:     505082  HIT %:    95.2413  MISS %:    4.75865   MPKI: 2.52321
L1D PREFETCH  ACCESS:   43667492  HIT:   42557164  MISS:    1110328  HIT %:    97.4573  MISS %:    2.54269   MPKI: 5.5468
L1D WRITEBACK ACCESS:          0  HIT:          0  MISS:          0  HIT %:       -nan  MISS %:       -nan   MPKI: 0
L1I TOTAL     ACCESS:   34381943  HIT:   34381847  MISS:         96  HIT %:    99.9997  MISS %: 0.000279216   MPKI: 0.000479581
L1I LOAD      ACCESS:   34381943  HIT:   34381847  MISS:         96  HIT %:    99.9997  MISS %: 0.000279216   MPKI: 0.000479581
L1I RFO       ACCESS:          0  HIT:          0  MISS:          0  HIT %:       -nan  MISS %:       -nan   MPKI: 0
L1I PREFETCH  ACCESS:          0  HIT:          0  MISS:          0  HIT %:       -nan  MISS %:       -nan   MPKI: 0
L1I WRITEBACK ACCESS:          0  HIT:          0  MISS:          0  HIT %:       -nan  MISS %:       -nan   MPKI: 0
L2C TOTAL     ACCESS:   18385705  HIT:   11999541  MISS:    6386164  HIT %:    65.2656  MISS %:    34.7344   MPKI: 31.903
L2C LOAD      ACCESS:    8989802  HIT:    5453637  MISS:    3536165  HIT %:    60.6647  MISS %:    39.3353   MPKI: 17.6654
L2C RFO       ACCESS:     505082  HIT:          0  MISS:     505082  HIT %:          0  MISS %:        100   MPKI: 2.52321
L2C PREFETCH  ACCESS:    6494237  HIT:    4389619  MISS:    2104618  HIT %:    67.5925  MISS %:    32.4075   MPKI: 10.5139
L2C WRITEBACK ACCESS:    1559736  HIT:    1443237  MISS:     116499  HIT %:    92.5309  MISS %:    7.46915   MPKI: 0.581987
PSCL5 TOTAL     ACCESS:     680935  HIT:     680935  MISS:          0  HIT %:        100  MISS %:          0   MPKI: 0
PSCL5 LOAD      ACCESS:          0  HIT:          0  MISS:          0  HIT %:       -nan  MISS %:       -nan   MPKI: 0
PSCL5 RFO       ACCESS:          0  HIT:          0  MISS:          0  HIT %:       -nan  MISS %:       -nan   MPKI: 0
PSCL5 PREFETCH  ACCESS:          0  HIT:          0  MISS:          0  HIT %:       -nan  MISS %:       -nan   MPKI: 0
PSCL5 WRITEBACK ACCESS:          0  HIT:          0  MISS:          0  HIT %:       -nan  MISS %:       -nan   MPKI: 0
PSCL4 TOTAL     ACCESS:     680929  HIT:     680929  MISS:          0  HIT %:        100  MISS %:          0   MPKI: 0
PSCL4 LOAD      ACCESS:          0  HIT:          0  MISS:          0  HIT %:       -nan  MISS %:       -nan   MPKI: 0
PSCL4 RFO       ACCESS:          0  HIT:          0  MISS:          0  HIT %:       -nan  MISS %:       -nan   MPKI: 0
PSCL4 PREFETCH  ACCESS:          0  HIT:          0  MISS:          0  HIT %:       -nan  MISS %:       -nan   MPKI: 0
PSCL4 WRITEBACK ACCESS:          0  HIT:          0  MISS:          0  HIT %:       -nan  MISS %:       -nan   MPKI: 0
PSCL3 TOTAL     ACCESS:     680929  HIT:     680929  MISS:          0  HIT %:        100  MISS %:          0   MPKI: 0
PSCL3 LOAD      ACCESS:          0  HIT:          0  MISS:          0  HIT %:       -nan  MISS %:       -nan   MPKI: 0
PSCL3 RFO       ACCESS:          0  HIT:          0  MISS:          0  HIT %:       -nan  MISS %:       -nan   MPKI: 0
PSCL3 PREFETCH  ACCESS:          0  HIT:          0  MISS:          0  HIT %:       -nan  MISS %:       -nan   MPKI: 0
PSCL3 WRITEBACK ACCESS:          0  HIT:          0  MISS:          0  HIT %:       -nan  MISS %:       -nan   MPKI: 0
PSCL2 TOTAL     ACCESS:     616263  HIT:     524498  MISS:      91765  HIT %:    85.1094  MISS %:    14.8906   MPKI: 0.458425
PSCL2 LOAD      ACCESS:          0  HIT:          0  MISS:          0  HIT %:       -nan  MISS %:       -nan   MPKI: 0
PSCL2 RFO       ACCESS:          0  HIT:          0  MISS:          0  HIT %:       -nan  MISS %:       -nan   MPKI: 0
PSCL2 PREFETCH  ACCESS:          0  HIT:          0  MISS:          0  HIT %:       -nan  MISS %:       -nan   MPKI: 0
PSCL2 WRITEBACK ACCESS:          0  HIT:          0  MISS:          0  HIT %:       -nan  MISS %:       -nan   MPKI: 0
LLC TOTAL     ACCESS:    7829562  HIT:    3910850  MISS:    3918712  HIT %:    49.9498  MISS %:    50.0502   MPKI: 19.5765
LLC LOAD      ACCESS:    3055083  HIT:    2263399  MISS:     791684  HIT %:    74.0863  MISS %:    25.9137   MPKI: 3.95497
LLC RFO       ACCESS:     505082  HIT:          0  MISS:     505082  HIT %:          0  MISS %:        100   MPKI: 2.52321
LLC PREFETCH  ACCESS:    2585700  HIT:      41874  MISS:    2543826  HIT %:    1.61945  MISS %:    98.3806   MPKI: 12.708
LLC WRITEBACK ACCESS:    1559897  HIT:    1496216  MISS:      63681  HIT %:    95.9176  MISS %:    4.08238   MPKI: 0.318127

RAW hits: 3572983
Loads Generated: 60371085
Loads sent to L1D: 56798098
Stores Generated: 14736198
Stores sent to L1D: 14736197

CPU 3 cumulative IPC: 0.390335 instructions: 200099474 cycles: 512635668
ITLB TOTAL     ACCESS:   31231803  HIT:   31231794  MISS:          9  HIT %:        100  MISS %: 2.88168e-05   MPKI: 4.49776e-05
ITLB LOAD      ACCESS:          0  HIT:          0  MISS:          0  HIT %:       -nan  MISS %:       -nan   MPKI: 0
ITLB RFO       ACCESS:          0  HIT:          0  MISS:          0  HIT %:       -nan  MISS %:       -nan   MPKI: 0
ITLB PREFETCH  ACCESS:          0  HIT:          0  MISS:          0  HIT %:       -nan  MISS %:       -nan   MPKI: 0
ITLB WRITEBACK ACCESS:          0  HIT:          0  MISS:          0  HIT %:       -nan  MISS %:       -nan   MPKI: 0
DTLB TOTAL     ACCESS:   42650373  HIT:   37854018  MISS:    4796355  HIT %:    88.7542  MISS %:    11.2458   MPKI: 23.9699
DTLB LOAD      ACCESS:          0  HIT:          0  MISS:          0  HIT %:       -nan  MISS %:       -nan   MPKI: 0
DTLB RFO       ACCESS:          0  HIT:          0  MISS:          0  HIT %:       -nan  MISS %:       -nan   MPKI: 0
DTLB PREFETCH  ACCESS:          0  HIT:          0  MISS:          0  HIT %:       -nan  MISS %:       -nan   MPKI: 0
DTLB WRITEBACK ACCESS:          0  HIT:          0  MISS:          0  HIT %:       -nan  MISS %:       -nan   MPKI: 0
STLB TOTAL     ACCESS:   16739632  HIT:   16359423  MISS:     380209  HIT %:    97.7287  MISS %:    2.27131   MPKI: 1.9001
STLB LOAD      ACCESS:          0  HIT:          0  MISS:          0  HIT %:       -nan  MISS %:       -nan   MPKI: 0
STLB RFO       ACCESS:          0  HIT:          0  MISS:          0  HIT %:       -nan  MISS %:       -nan   MPKI: 0
STLB PREFETCH  ACCESS:          0  HIT:          0  MISS:          0  HIT %:       -nan  MISS %:       -nan   MPKI: 0
STLB WRITEBACK ACCESS:          0  HIT:          0  MISS:          0  HIT %:       -nan  MISS %:       -nan   MPKI: 0
L1D TOTAL     ACCESS:   85332674  HIT:   74694198  MISS:   10638476  HIT %:    87.5329  MISS %:    12.4671   MPKI: 53.1659
L1D LOAD      ACCESS:   31289427  HIT:   22276146  MISS:    9013281  HIT %:    71.1938  MISS %:    28.8062   MPKI: 45.044
L1D RFO       ACCESS:   10591801  HIT:   10086719  MISS:     505082  HIT %:    95.2314  MISS %:    4.76861   MPKI: 2.52415
L1D PREFETCH  ACCESS:   43451446  HIT:   42331333  MISS:    1120113  HIT %:    97.4222  MISS %:    2.57785   MPKI: 5.59778
L1D WRITEBACK ACCESS:          0  HIT:          0  MISS:          0  HIT %:       -nan  MISS %:       -nan   MPKI: 0
L1I TOTAL     ACCESS:   34345509  HIT:   34345413  MISS:         96  HIT %:    99.9997  MISS %: 0.000279513   MPKI: 0.000479761
L1I LOAD      ACCESS:   34345509  HIT:   34345413  MISS:         96  HIT %:    99.9997  MISS %: 0.000279513   MPKI: 0.000479761
L1I RFO       ACCESS:          0  HIT:          0  MISS:          0  HIT %:       -nan  MISS %:       -nan   MPKI: 0
L1I PREFETCH  ACCESS:          0  HIT:          0  MISS:          0  HIT %:       -nan  MISS %:       -nan   MPKI: 0
L1I WRITEBACK ACCESS:          0  HIT:          0  MISS:          0  HIT %:       -nan  MISS %:       -nan   MPKI: 0
L2C TOTAL     ACCESS:   18392716  HIT:   12042635  MISS:    6350081  HIT %:     65.475  MISS %:     34.525   MPKI: 31.7346
L2C LOAD      ACCESS:    8977601  HIT:    5482525  MISS:    3495076  HIT %:    61.0689  MISS %:    38.9311   MPKI: 17.4667
L2C RFO       ACCESS:     505082  HIT:          0  MISS:     505082  HIT %:          0  MISS %:        100   MPKI: 2.52415
L2C PREFETCH  ACCESS:    6518057  HIT:    4410171  MISS:    2107886  HIT %:    67.6608  MISS %:    32.3392   MPKI: 10.5342
L2C WRITEBACK ACCESS:    1559643  HIT:    1441789  MISS:     117854  HIT %:    92.4435  MISS %:    7.55647   MPKI: 0.588977
PSCL5 TOTAL     ACCESS:     677414  HIT:     677414  MISS:          0  HIT %:        100  MISS %:          0   MPKI: 0
PSCL5 LOAD      ACCESS:          0  HIT:          0  MISS:          0  HIT %:       -nan  MISS %:       -nan   MPKI: 0
PSCL5 RFO       ACCESS:          0  HIT:          0  MISS:          0  HIT %:       -nan  MISS %:       -nan   MPKI: 0
PSCL5 PREFETCH  ACCESS:          0  HIT:          0  MISS:          0  HIT %:       -nan  MISS %:       -nan   MPKI: 0
PSCL5 WRITEBACK ACCESS:          0  HIT:          0  MISS:          0  HIT %:       -nan  MISS %:       -nan   MPKI: 0
PSCL4 TOTAL     ACCESS:     677408  HIT:     677408  MISS:          0  HIT %:        100  MISS %:          0   MPKI: 0
PSCL4 LOAD      ACCESS:          0  HIT:          0  MISS:          0  HIT %:       -nan  MISS %:       -nan   MPKI: 0
PSCL4 RFO       ACCESS:          0  HIT:          0  MISS:          0  HIT %:       -nan  MISS %:       -nan   MPKI: 0
PSCL4 PREFETCH  ACCESS:          0  HIT:          0  MISS:          0  HIT %:       -nan  MISS %:       -nan   MPKI: 0
PSCL4 WRITEBACK ACCESS:          0  HIT:          0  MISS:          0  HIT %:       -nan  MISS %:       -nan   MPKI: 0
PSCL3 TOTAL     ACCESS:     677408  HIT:     677408  MISS:          0  HIT %:        100  MISS %:          0   MPKI: 0
PSCL3 LOAD      ACCESS:          0  HIT:          0  MISS:          0  HIT %:       -nan  MISS %:       -nan   MPKI: 0
PSCL3 RFO       ACCESS:          0  HIT:          0  MISS:          0  HIT %:       -nan  MISS %:       -nan   MPKI: 0
PSCL3 PREFETCH  ACCESS:          0  HIT:          0  MISS:          0  HIT %:       -nan  MISS %:       -nan   MPKI: 0
PSCL3 WRITEBACK ACCESS:          0  HIT:          0  MISS:          0  HIT %:       -nan  MISS %:       -nan   MPKI: 0
PSCL2 TOTAL     ACCESS:     612911  HIT:     521943  MISS:      90968  HIT %:     85.158  MISS %:     14.842   MPKI: 0.454614
PSCL2 LOAD      ACCESS:          0  HIT:          0  MISS:          0  HIT %:       -nan  MISS %:       -nan   MPKI: 0
PSCL2 RFO       ACCESS:          0  HIT:          0  MISS:          0  HIT %:       -nan  MISS %:       -nan   MPKI: 0
PSCL2 PREFETCH  ACCESS:          0  HIT:          0  MISS:          0  HIT %:       -nan  MISS %:       -nan   MPKI: 0
PSCL2 WRITEBACK ACCESS:          0  HIT:          0  MISS:          0  HIT %:       -nan  MISS %:       -nan   MPKI: 0
LLC TOTAL     ACCESS:    7792023  HIT:    3874525  MISS:    3917498  HIT %:    49.7243  MISS %:    50.2757   MPKI: 19.5778
LLC LOAD      ACCESS:    3017195  HIT:    2226022  MISS:     791173  HIT %:    73.7779  MISS %:    26.2221   MPKI: 3.9539
LLC RFO       ACCESS:     505082  HIT:          0  MISS:     505082  HIT %:          0  MISS %:        100   MPKI: 2.52415
LLC PREFETCH  ACCESS:    2585767  HIT:      42372  MISS:    2543395  HIT %:    1.63866  MISS %:    98.3613   MPKI: 12.7107
LLC WRITEBACK ACCESS:    1559796  HIT:    1495259  MISS:      64537  HIT %:    95.8625  MISS %:    4.13753   MPKI: 0.322525

RAW hits: 3574792
Loads Generated: 60341615
Loads sent to L1D: 56766823
Stores Generated: 14732809
Stores sent to L1D: 14732809

Region of Interest Statistics

CPU 0 cumulative IPC: 0.390357 instructions: 200000003 cycles: 512352098
ITLB TOTAL     ACCESS:   31242389  HIT:   31242380  MISS:          9  HIT %:        100  MISS %: 2.8807e-05   MPKI: 4.5e-05
ITLB LOAD TRANSLATION ACCESS:   31242389  HIT:   31242380  MISS:          9  HIT %:        100  MISS %: 2.8807e-05   MPKI: 4.5e-05
ITLB PREFETCH  REQUESTED:          0  ISSUED:          0  USEFUL:          0  USELESS:          0
ITLB USEFUL LOAD PREFETCHES:          0 PREFETCH ISSUED TO LOWER LEVEL:          0  ACCURACY: -nan
ITLB TIMELY PREFETCHES:          0 LATE PREFETCHES: 0 DROPPED PREFETCHES: 0
ITLB PREFETCHES SAME FILL-ORIGIN LEVEL: 0 DIFFERENT FILL-ORIGIN LEVEL: 0
ITLB AVERAGE MISS LATENCY: 2474.22 cycles
ITLB RQ	ACCESS:   34388662	FORWARD:          0	MERGED:    3141867	TO_CACHE:   31246795

DTLB TOTAL     ACCESS:   42697741  HIT:   37903582  MISS:    4794159  HIT %:    88.7719  MISS %:    11.2281   MPKI: 23.9708
DTLB LOAD TRANSLATION ACCESS:   42697741  HIT:   37903582  MISS:    4794159  HIT %:    88.7719  MISS %:    11.2281   MPKI: 23.9708
DTLB PREFETCH  REQUESTED:          0  ISSUED:          0  USEFUL:          0  USELESS:          0
DTLB USEFUL LOAD PREFETCHES:          0 PREFETCH ISSUED TO LOWER LEVEL:          0  ACCURACY: -nan
DTLB TIMELY PREFETCHES:          0 LATE PREFETCHES: 0 DROPPED PREFETCHES: 0
DTLB PREFETCHES SAME FILL-ORIGIN LEVEL: 0 DIFFERENT FILL-ORIGIN LEVEL: 0
DTLB AVERAGE MISS LATENCY: 17.7201 cycles
DTLB RQ	ACCESS:   46761459	FORWARD:          0	MERGED:    3484385	TO_CACHE:   43277074

STLB TOTAL     ACCESS:   16794049  HIT:   16415638  MISS:     378411  HIT %:    97.7468  MISS %:    2.25324   MPKI: 1.89205
STLB LOAD TRANSLATION ACCESS:    4794167  HIT:    4443166  MISS:     351001  HIT %:    92.6786  MISS %:    7.32142   MPKI: 1.755
STLB TRANSLATION FROM L1D PREFETCHER ACCESS:   11999882  HIT:   11972472  MISS:      27410  HIT %:    99.7716  MISS %:   0.228419   MPKI: 0.13705
STLB PREFETCH  REQUESTED:          0  ISSUED:          0  USEFUL:      27341  USELESS:         75
STLB USEFUL LOAD PREFETCHES:      27341 PREFETCH ISSUED TO LOWER LEVEL:          0  ACCURACY: inf
STLB TIMELY PREFETCHES:      27341 LATE PREFETCHES: 5368 DROPPED PREFETCHES: 293720
STLB PREFETCHES SAME FILL-ORIGIN LEVEL: 0 DIFFERENT FILL-ORIGIN LEVEL: 0
STLB AVERAGE MISS LATENCY: 113.225 cycles
STLB RQ	ACCESS:   64099826	FORWARD:          0	MERGED:   46967191	TO_CACHE:   17132635

STLB Hit, L1D data hit: 0
STLB Hit, L2C data hit: 0
STLB Hit, LLC data hit: 0
STLB Hit, LLC data miss: 0
STLB STLB hints to L2: 0
L1D TOTAL     ACCESS:   85609022  HIT:   74973615  MISS:   10635407  HIT %:    87.5768  MISS %:    12.4232   MPKI: 53.177
L1D LOAD      ACCESS:   31304550  HIT:   22291238  MISS:    9013312  HIT %:    71.2077  MISS %:    28.7923   MPKI: 45.0666
L1D RFO       ACCESS:   10607591  HIT:   10102509  MISS:     505082  HIT %:    95.2385  MISS %:    4.76151   MPKI: 2.52541
L1D PREFETCH  ACCESS:   43696881  HIT:   42579868  MISS:    1117013  HIT %:    97.4437  MISS %:    2.55628   MPKI: 5.58506
L1D PREFETCH  REQUESTED:  144020458  ISSUED:  143299772  USEFUL:    1094603  USELESS:      22753
L1D USEFUL LOAD PREFETCHES:    1094603 PREFETCH ISSUED TO LOWER LEVEL:   10654466  ACCURACY: 10.2737
L1D TIMELY PREFETCHES:    1094603 LATE PREFETCHES: 36340 DROPPED PREFETCHES: 901461
L1D PREFETCHES SAME FILL-ORIGIN LEVEL: 1153705 DIFFERENT FILL-ORIGIN LEVEL: 9500761
L1D AVERAGE MISS LATENCY: 225.159 cycles
L1D RQ	ACCESS:   56747214	FORWARD:          0	MERGED:   24116414	TO_CACHE:   32620648
L1D WQ	ACCESS:   14730238	FORWARD:      10152	MERGED:     589427	TO_CACHE:   14140811
L1D PQ	ACCESS:   83996308	FORWARD:          0	MERGED:   24692844	TO_CACHE:   59303464

L1D UNIQUE REGIONS ACCESSED: 0
L1D REGIONS CONFLICTS: 0
L1D Cross Page Prefetch Requests: 8562209
L1D Same Page Prefetch Requests: 97071012
L1D ROI Sum of L1D PQ occupancy: 1044686539
L1D PREFETCHES PUSHED FROM L2C: 0
L1I TOTAL     ACCESS:   34384242  HIT:   34384146  MISS:         96  HIT %:    99.9997  MISS %: 0.000279198   MPKI: 0.00048
L1I LOAD      ACCESS:   34384242  HIT:   34384146  MISS:         96  HIT %:    99.9997  MISS %: 0.000279198   MPKI: 0.00048
L1I PREFETCH  REQUESTED:          0  ISSUED:          0  USEFUL:          0  USELESS:          0
L1I USEFUL LOAD PREFETCHES:          0 PREFETCH ISSUED TO LOWER LEVEL:          0  ACCURACY: -nan
L1I TIMELY PREFETCHES:          0 LATE PREFETCHES: 0 DROPPED PREFETCHES: 0
L1I PREFETCHES SAME FILL-ORIGIN LEVEL: 0 DIFFERENT FILL-ORIGIN LEVEL: 0
L1I AVERAGE MISS LATENCY: 877.854 cycles
L1I RQ	ACCESS:   53213712	FORWARD:          0	MERGED:   18825050	TO_CACHE:   34388662

BTB TOTAL     ACCESS:   19854403  HIT:   19854287  MISS:        116  HIT %:    99.9994  MISS %: 0.000584253   MPKI: 0.00058
BTB BRANCH_DIRECT_JUMP	ACCESS:         47  HIT:         25  MISS:         22
BTB BRANCH_INDIRECT	ACCESS:          0  HIT:          0  MISS:          0
BTB BRANCH_CONDITIONAL	ACCESS:   19854330  HIT:   19854255  MISS:         75
BTB BRANCH_DIRECT_CALL	ACCESS:         13  HIT:          4  MISS:          9
BTB BRANCH_INDIRECT_CALL	ACCESS:          0  HIT:          0  MISS:          0
BTB BRANCH_RETURN	ACCESS:         13  HIT:          3  MISS:         10
BTB BRANCH_OTHER ACCESS:          0  HIT:          0  MISS:          0

L2C TOTAL     ACCESS:   18382479  HIT:   12032229  MISS:    6350250  HIT %:    65.4549  MISS %:    34.5451   MPKI: 31.7512
L2C LOAD      ACCESS:    8977068  HIT:    5471694  MISS:    3505374  HIT %:    60.9519  MISS %:    39.0481   MPKI: 17.5269
L2C DATA LOAD MPKI: 17.5264
L2C INSTRUCTION LOAD MPKI: 0.00048
L2C RFO       ACCESS:     505082  HIT:          0  MISS:     505082  HIT %:          0  MISS %:        100   MPKI: 2.52541
L2C PREFETCH  ACCESS:    6510314  HIT:    4406294  MISS:    2104020  HIT %:    67.6817  MISS %:    32.3183   MPKI: 10.5201
L2C DATA PREFETCH MPKI: 10.5201
L2C INSTRUCTION PREFETCH MPKI: 0
L2C WRITEBACK ACCESS:    1559437  HIT:    1442760  MISS:     116677  HIT %:     92.518  MISS %:      7.482   MPKI: 0.583385
L2C LOAD TRANSLATION ACCESS:     440100  HIT:     326667  MISS:     113433  HIT %:    74.2256  MISS %:    25.7744   MPKI: 0.567165
L2C TRANSLATION FROM L1D PREFETCHER ACCESS:     390478  HIT:     384814  MISS:       5664  HIT %:    98.5495  MISS %:    1.45053   MPKI: 0.02832
L2C PREFETCH  REQUESTED:          0  ISSUED:          0  USEFUL:     969794  USELESS:    1140775
L2C USEFUL LOAD PREFETCHES:     969794 PREFETCH ISSUED TO LOWER LEVEL:    2582177  ACCURACY: 37.5572
L2C TIMELY PREFETCHES:     969794 LATE PREFETCHES: 477814 DROPPED PREFETCHES: 0
L2C PREFETCHES SAME FILL-ORIGIN LEVEL: 1733867 DIFFERENT FILL-ORIGIN LEVEL: 0
L2C AVERAGE MISS LATENCY: 528.287 cycles
L2C RQ	ACCESS:   10317086	FORWARD:          0	MERGED:          0	TO_CACHE:   10317086
L2C WQ	ACCESS:    1559507	FORWARD:          0	MERGED:          0	TO_CACHE:    1559507
L2C PQ	ACCESS:   10653630	FORWARD:          0	MERGED:     208659	TO_CACHE:   10444971

L2C Instructions Evicting Data 95
L2C Translations Evicting Data 102140
L2C Data Evicting Data 6015226
L2C Instructions Evicting Instructions 0
L2C Translations Evicting Instructions 0
L2C Data Evicting Instructions 96
L2C Instructions Evicting Translations 1
L2C Translations Evicting Translations 17473
L2C Data Evicting Translations 101792
L2C Dense regions hint from L2: 0
PSCL5 TOTAL     ACCESS:     676479  HIT:     676479  MISS:          0  HIT %:        100  MISS %:          0   MPKI: 0
PSCL5 LOAD TRANSLATION ACCESS:     349981  HIT:     349981  MISS:          0  HIT %:        100  MISS %:          0   MPKI: 0
PSCL5 TRANSLATION FROM L1D PREFETCHER ACCESS:     326498  HIT:     326498  MISS:          0  HIT %:        100  MISS %:          0   MPKI: 0
PSCL5 PREFETCH  REQUESTED:          0  ISSUED:          0  USEFUL:          0  USELESS:          0
PSCL5 USEFUL LOAD PREFETCHES:          0 PREFETCH ISSUED TO LOWER LEVEL:          0  ACCURACY: -nan
PSCL5 TIMELY PREFETCHES:          0 LATE PREFETCHES: 0 DROPPED PREFETCHES: 0
PSCL5 PREFETCHES SAME FILL-ORIGIN LEVEL: 0 DIFFERENT FILL-ORIGIN LEVEL: 0

PSCL4 TOTAL     ACCESS:     676473  HIT:     676473  MISS:          0  HIT %:        100  MISS %:          0   MPKI: 0
PSCL4 LOAD TRANSLATION ACCESS:     349981  HIT:     349981  MISS:          0  HIT %:        100  MISS %:          0   MPKI: 0
PSCL4 TRANSLATION FROM L1D PREFETCHER ACCESS:     326492  HIT:     326492  MISS:          0  HIT %:        100  MISS %:          0   MPKI: 0
PSCL4 PREFETCH  REQUESTED:          0  ISSUED:          0  USEFUL:          0  USELESS:          0
PSCL4 USEFUL LOAD PREFETCHES:          0 PREFETCH ISSUED TO LOWER LEVEL:          0  ACCURACY: -nan
PSCL4 TIMELY PREFETCHES:          0 LATE PREFETCHES: 0 DROPPED PREFETCHES: 0
PSCL4 PREFETCHES SAME FILL-ORIGIN LEVEL: 0 DIFFERENT FILL-ORIGIN LEVEL: 0

PSCL3 TOTAL     ACCESS:     676473  HIT:     676473  MISS:          0  HIT %:        100  MISS %:          0   MPKI: 0
PSCL3 LOAD TRANSLATION ACCESS:     349981  HIT:     349981  MISS:          0  HIT %:        100  MISS %:          0   MPKI: 0
PSCL3 TRANSLATION FROM L1D PREFETCHER ACCESS:     326492  HIT:     326492  MISS:          0  HIT %:        100  MISS %:          0   MPKI: 0
PSCL3 PREFETCH  REQUESTED:          0  ISSUED:          0  USEFUL:          0  USELESS:          0
PSCL3 USEFUL LOAD PREFETCHES:          0 PREFETCH ISSUED TO LOWER LEVEL:          0  ACCURACY: -nan
PSCL3 TIMELY PREFETCHES:          0 LATE PREFETCHES: 0 DROPPED PREFETCHES: 0
PSCL3 PREFETCHES SAME FILL-ORIGIN LEVEL: 0 DIFFERENT FILL-ORIGIN LEVEL: 0

PSCL2 TOTAL     ACCESS:     612043  HIT:     521847  MISS:      90196  HIT %:    85.2631  MISS %:    14.7369   MPKI: 0.45098
PSCL2 LOAD TRANSLATION ACCESS:     350028  HIT:     259832  MISS:      90196  HIT %:    74.2318  MISS %:    25.7682   MPKI: 0.45098
PSCL2 TRANSLATION FROM L1D PREFETCHER ACCESS:     262015  HIT:     262015  MISS:          0  HIT %:        100  MISS %:          0   MPKI: 0
PSCL2 PREFETCH  REQUESTED:          0  ISSUED:          0  USEFUL:          0  USELESS:          0
PSCL2 USEFUL LOAD PREFETCHES:          0 PREFETCH ISSUED TO LOWER LEVEL:          0  ACCURACY: -nan
PSCL2 TIMELY PREFETCHES:          0 LATE PREFETCHES: 0 DROPPED PREFETCHES: 0
PSCL2 PREFETCHES SAME FILL-ORIGIN LEVEL: 0 DIFFERENT FILL-ORIGIN LEVEL: 0

LLC TOTAL     ACCESS:    7793136  HIT:    3880915  MISS:    3912221  HIT %:    49.7991  MISS %:    50.2009   MPKI: 19.5611
LLC LOAD      ACCESS:    3027560  HIT:    2240523  MISS:     787037  HIT %:    74.0042  MISS %:    25.9958   MPKI: 3.93518
LLC RFO       ACCESS:     505082  HIT:          0  MISS:     505082  HIT %:          0  MISS %:        100   MPKI: 2.52541
LLC PREFETCH  ACCESS:    2581834  HIT:      41207  MISS:    2540627  HIT %:    1.59604  MISS %:     98.404   MPKI: 12.7031
LLC WRITEBACK ACCESS:    1559563  HIT:    1493830  MISS:      65733  HIT %:    95.7852  MISS %:    4.21483   MPKI: 0.328665
LLC LOAD TRANSLATION ACCESS:     113433  HIT:     104835  MISS:       8598  HIT %:    92.4202  MISS %:     7.5798   MPKI: 0.04299
LLC TRANSLATION FROM L1D PREFETCHER ACCESS:       5664  HIT:        520  MISS:       5144  HIT %:    9.18079  MISS %:    90.8192   MPKI: 0.02572
LLC PREFETCH  REQUESTED:          0  ISSUED:          0  USEFUL:     156231  USELESS:   10050653
LLC USEFUL LOAD PREFETCHES:     156231 PREFETCH ISSUED TO LOWER LEVEL:  124484478  ACCURACY: 0.125502
LLC TIMELY PREFETCHES:     156231 LATE PREFETCHES: 0 DROPPED PREFETCHES: 0
LLC PREFETCHES SAME FILL-ORIGIN LEVEL: 0 DIFFERENT FILL-ORIGIN LEVEL: 0
LLC AVERAGE MISS LATENCY: 3445.32 cycles
LLC RQ	ACCESS:   14639349	FORWARD:          0	MERGED:          0	TO_CACHE:   14639349
LLC WQ	ACCESS:    6238973	FORWARD:          0	MERGED:          0	TO_CACHE:    6238973
LLC PQ	ACCESS:   10336282	FORWARD:          0	MERGED:          0	TO_CACHE:   10336282

LLC Dense regions hint to LLC: 0

RAW hits: 3569926
Loads Generated: 60304607
Loads sent to L1D: 56734678
Stores Generated: 14728770
Stores sent to L1D: 14728768
Major fault: 0 Minor fault: 47114
Allocated PAGES: 188456

CPU 1 cumulative IPC: 0.390141 instructions: 200000001 cycles: 512635668
ITLB TOTAL     ACCESS:   31223819  HIT:   31223810  MISS:          9  HIT %:        100  MISS %: 2.88241e-05   MPKI: 4.5e-05
ITLB LOAD TRANSLATION ACCESS:   31223819  HIT:   31223810  MISS:          9  HIT %:        100  MISS %: 2.88241e-05   MPKI: 4.5e-05
ITLB PREFETCH  REQUESTED:          0  ISSUED:          0  USEFUL:          0  USELESS:          0
ITLB USEFUL LOAD PREFETCHES:          0 PREFETCH ISSUED TO LOWER LEVEL:          0  ACCURACY: -nan
ITLB TIMELY PREFETCHES:          0 LATE PREFETCHES: 0 DROPPED PREFETCHES: 0
ITLB PREFETCHES SAME FILL-ORIGIN LEVEL: 0 DIFFERENT FILL-ORIGIN LEVEL: 0
ITLB AVERAGE MISS LATENCY: 998 cycles
ITLB RQ	ACCESS:   34339588	FORWARD:          0	MERGED:    3115768	TO_CACHE:   31223820

DTLB TOTAL     ACCESS:   42648541  HIT:   37855831  MISS:    4792710  HIT %:    88.7623  MISS %:    11.2377   MPKI: 23.9635
DTLB LOAD TRANSLATION ACCESS:   42648541  HIT:   37855831  MISS:    4792710  HIT %:    88.7623  MISS %:    11.2377   MPKI: 23.9635
DTLB PREFETCH  REQUESTED:          0  ISSUED:          0  USEFUL:          0  USELESS:          0
DTLB USEFUL LOAD PREFETCHES:          0 PREFETCH ISSUED TO LOWER LEVEL:          0  ACCURACY: -nan
DTLB TIMELY PREFETCHES:          0 LATE PREFETCHES: 0 DROPPED PREFETCHES: 0
DTLB PREFETCHES SAME FILL-ORIGIN LEVEL: 0 DIFFERENT FILL-ORIGIN LEVEL: 0
DTLB AVERAGE MISS LATENCY: 17.5481 cycles
DTLB RQ	ACCESS:   46713484	FORWARD:          0	MERGED:    3495533	TO_CACHE:   43217951

STLB TOTAL     ACCESS:   16774989  HIT:   16397440  MISS:     377549  HIT %:    97.7493  MISS %:    2.25067   MPKI: 1.88774
STLB LOAD TRANSLATION ACCESS:    4792719  HIT:    4442632  MISS:     350087  HIT %:    92.6954  MISS %:    7.30456   MPKI: 1.75043
STLB TRANSLATION FROM L1D PREFETCHER ACCESS:   11982270  HIT:   11954808  MISS:      27462  HIT %:    99.7708  MISS %:   0.229189   MPKI: 0.13731
STLB PREFETCH  REQUESTED:          0  ISSUED:          0  USEFUL:      27385  USELESS:         78
STLB USEFUL LOAD PREFETCHES:      27385 PREFETCH ISSUED TO LOWER LEVEL:          0  ACCURACY: inf
STLB TIMELY PREFETCHES:      27385 LATE PREFETCHES: 5371 DROPPED PREFETCHES: 293494
STLB PREFETCHES SAME FILL-ORIGIN LEVEL: 0 DIFFERENT FILL-ORIGIN LEVEL: 0
STLB AVERAGE MISS LATENCY: 111.271 cycles
STLB RQ	ACCESS:   63957676	FORWARD:          0	MERGED:   46849310	TO_CACHE:   17108366

STLB Hit, L1D data hit: 0
STLB Hit, L2C data hit: 0
STLB Hit, LLC data hit: 0
STLB Hit, LLC data miss: 0
STLB STLB hints to L2: 0
L1D TOTAL     ACCESS:   85550937  HIT:   74922353  MISS:   10628584  HIT %:    87.5763  MISS %:    12.4237   MPKI: 53.1429
L1D LOAD      ACCESS:   31286810  HIT:   22280233  MISS:    9006577  HIT %:    71.2129  MISS %:    28.7871   MPKI: 45.0329
L1D RFO       ACCESS:   10592792  HIT:   10087710  MISS:     505082  HIT %:    95.2318  MISS %:    4.76817   MPKI: 2.52541
L1D PREFETCH  ACCESS:   43671335  HIT:   42554410  MISS:    1116925  HIT %:    97.4424  MISS %:    2.55757   MPKI: 5.58462
L1D PREFETCH  REQUESTED:  143735594  ISSUED:  143037089  USEFUL:    1100025  USELESS:      16905
L1D USEFUL LOAD PREFETCHES:    1100025 PREFETCH ISSUED TO LOWER LEVEL:   10572915  ACCURACY: 10.4042
L1D TIMELY PREFETCHES:    1100025 LATE PREFETCHES: 36865 DROPPED PREFETCHES: 904047
L1D PREFETCHES SAME FILL-ORIGIN LEVEL: 1153811 DIFFERENT FILL-ORIGIN LEVEL: 9419104
L1D AVERAGE MISS LATENCY: 226.891 cycles
L1D RQ	ACCESS:   56732486	FORWARD:          0	MERGED:   24133621	TO_CACHE:   32588695
L1D WQ	ACCESS:   14728710	FORWARD:      10170	MERGED:     603921	TO_CACHE:   14124789
L1D PQ	ACCESS:   83872132	FORWARD:          0	MERGED:   24707175	TO_CACHE:   59164957

L1D UNIQUE REGIONS ACCESSED: 0
L1D REGIONS CONFLICTS: 0
L1D Cross Page Prefetch Requests: 8495169
L1D Same Page Prefetch Requests: 96973798
L1D ROI Sum of L1D PQ occupancy: 1046008825
L1D PREFETCHES PUSHED FROM L2C: 0
L1I TOTAL     ACCESS:   34339578  HIT:   34339482  MISS:         96  HIT %:    99.9997  MISS %: 0.000279561   MPKI: 0.00048
L1I LOAD      ACCESS:   34339578  HIT:   34339482  MISS:         96  HIT %:    99.9997  MISS %: 0.000279561   MPKI: 0.00048
L1I PREFETCH  REQUESTED:          0  ISSUED:          0  USEFUL:          0  USELESS:          0
L1I USEFUL LOAD PREFETCHES:          0 PREFETCH ISSUED TO LOWER LEVEL:          0  ACCURACY: -nan
L1I TIMELY PREFETCHES:          0 LATE PREFETCHES: 0 DROPPED PREFETCHES: 0
L1I PREFETCHES SAME FILL-ORIGIN LEVEL: 0 DIFFERENT FILL-ORIGIN LEVEL: 0
L1I AVERAGE MISS LATENCY: 742.875 cycles
L1I RQ	ACCESS:   53225760	FORWARD:          0	MERGED:   18886172	TO_CACHE:   34339588

BTB TOTAL     ACCESS:   19854688  HIT:   19854572  MISS:        116  HIT %:    99.9994  MISS %: 0.000584245   MPKI: 0.00058
BTB BRANCH_DIRECT_JUMP	ACCESS:         47  HIT:         25  MISS:         22
BTB BRANCH_INDIRECT	ACCESS:          0  HIT:          0  MISS:          0
BTB BRANCH_CONDITIONAL	ACCESS:   19854615  HIT:   19854540  MISS:         75
BTB BRANCH_DIRECT_CALL	ACCESS:         13  HIT:          4  MISS:          9
BTB BRANCH_INDIRECT_CALL	ACCESS:          0  HIT:          0  MISS:          0
BTB BRANCH_RETURN	ACCESS:         13  HIT:          3  MISS:         10
BTB BRANCH_OTHER ACCESS:          0  HIT:          0  MISS:          0

L2C TOTAL     ACCESS:   18281598  HIT:   11923199  MISS:    6358399  HIT %:    65.2197  MISS %:    34.7803   MPKI: 31.792
L2C LOAD      ACCESS:    8969808  HIT:    5465252  MISS:    3504556  HIT %:    60.9294  MISS %:    39.0706   MPKI: 17.5228
L2C DATA LOAD MPKI: 17.5223
L2C INSTRUCTION LOAD MPKI: 0.00048
L2C RFO       ACCESS:     505082  HIT:          0  MISS:     505082  HIT %:          0  MISS %:        100   MPKI: 2.52541
L2C PREFETCH  ACCESS:    6416424  HIT:    4310721  MISS:    2105703  HIT %:    67.1826  MISS %:    32.8174   MPKI: 10.5285
L2C DATA PREFETCH MPKI: 10.5285
L2C INSTRUCTION PREFETCH MPKI: 0
L2C WRITEBACK ACCESS:    1559453  HIT:    1437968  MISS:     121485  HIT %:    92.2098  MISS %:    7.79023   MPKI: 0.607425
L2C LOAD TRANSLATION ACCESS:     439068  HIT:     323197  MISS:     115871  HIT %:    73.6098  MISS %:    26.3902   MPKI: 0.579355
L2C TRANSLATION FROM L1D PREFETCHER ACCESS:     391763  HIT:     386061  MISS:       5702  HIT %:    98.5445  MISS %:    1.45547   MPKI: 0.02851
L2C PREFETCH  REQUESTED:          0  ISSUED:          0  USEFUL:     965150  USELESS:    1146875
L2C USEFUL LOAD PREFETCHES:     965150 PREFETCH ISSUED TO LOWER LEVEL:    2582638  ACCURACY: 37.3707
L2C TIMELY PREFETCHES:     965150 LATE PREFETCHES: 476935 DROPPED PREFETCHES: 0
L2C PREFETCHES SAME FILL-ORIGIN LEVEL: 1737440 DIFFERENT FILL-ORIGIN LEVEL: 0
L2C AVERAGE MISS LATENCY: 530.622 cycles
L2C RQ	ACCESS:   10305721	FORWARD:          0	MERGED:          0	TO_CACHE:   10305721
L2C WQ	ACCESS:    1559453	FORWARD:          0	MERGED:          0	TO_CACHE:    1559453
L2C PQ	ACCESS:   10571943	FORWARD:          0	MERGED:     210298	TO_CACHE:   10361645

L2C Instructions Evicting Data 95
L2C Translations Evicting Data 101835
L2C Data Evicting Data 6013388
L2C Instructions Evicting Instructions 0
L2C Translations Evicting Instructions 0
L2C Data Evicting Instructions 94
L2C Instructions Evicting Translations 1
L2C Translations Evicting Translations 19738
L2C Data Evicting Translations 101762
L2C Dense regions hint from L2: 0
PSCL5 TOTAL     ACCESS:     675423  HIT:     675423  MISS:          0  HIT %:        100  MISS %:          0   MPKI: 0
PSCL5 LOAD TRANSLATION ACCESS:     349096  HIT:     349096  MISS:          0  HIT %:        100  MISS %:          0   MPKI: 0
PSCL5 TRANSLATION FROM L1D PREFETCHER ACCESS:     326327  HIT:     326327  MISS:          0  HIT %:        100  MISS %:          0   MPKI: 0
PSCL5 PREFETCH  REQUESTED:          0  ISSUED:          0  USEFUL:          0  USELESS:          0
PSCL5 USEFUL LOAD PREFETCHES:          0 PREFETCH ISSUED TO LOWER LEVEL:          0  ACCURACY: -nan
PSCL5 TIMELY PREFETCHES:          0 LATE PREFETCHES: 0 DROPPED PREFETCHES: 0
PSCL5 PREFETCHES SAME FILL-ORIGIN LEVEL: 0 DIFFERENT FILL-ORIGIN LEVEL: 0

PSCL4 TOTAL     ACCESS:     675417  HIT:     675417  MISS:          0  HIT %:        100  MISS %:          0   MPKI: 0
PSCL4 LOAD TRANSLATION ACCESS:     349096  HIT:     349096  MISS:          0  HIT %:        100  MISS %:          0   MPKI: 0
PSCL4 TRANSLATION FROM L1D PREFETCHER ACCESS:     326321  HIT:     326321  MISS:          0  HIT %:        100  MISS %:          0   MPKI: 0
PSCL4 PREFETCH  REQUESTED:          0  ISSUED:          0  USEFUL:          0  USELESS:          0
PSCL4 USEFUL LOAD PREFETCHES:          0 PREFETCH ISSUED TO LOWER LEVEL:          0  ACCURACY: -nan
PSCL4 TIMELY PREFETCHES:          0 LATE PREFETCHES: 0 DROPPED PREFETCHES: 0
PSCL4 PREFETCHES SAME FILL-ORIGIN LEVEL: 0 DIFFERENT FILL-ORIGIN LEVEL: 0

PSCL3 TOTAL     ACCESS:     675417  HIT:     675417  MISS:          0  HIT %:        100  MISS %:          0   MPKI: 0
PSCL3 LOAD TRANSLATION ACCESS:     349096  HIT:     349096  MISS:          0  HIT %:        100  MISS %:          0   MPKI: 0
PSCL3 TRANSLATION FROM L1D PREFETCHER ACCESS:     326321  HIT:     326321  MISS:          0  HIT %:        100  MISS %:          0   MPKI: 0
PSCL3 PREFETCH  REQUESTED:          0  ISSUED:          0  USEFUL:          0  USELESS:          0
PSCL3 USEFUL LOAD PREFETCHES:          0 PREFETCH ISSUED TO LOWER LEVEL:          0  ACCURACY: -nan
PSCL3 TIMELY PREFETCHES:          0 LATE PREFETCHES: 0 DROPPED PREFETCHES: 0
PSCL3 PREFETCHES SAME FILL-ORIGIN LEVEL: 0 DIFFERENT FILL-ORIGIN LEVEL: 0

PSCL2 TOTAL     ACCESS:     609560  HIT:     519520  MISS:      90040  HIT %:    85.2287  MISS %:    14.7713   MPKI: 0.4502
PSCL2 LOAD TRANSLATION ACCESS:     349133  HIT:     259093  MISS:      90040  HIT %:    74.2104  MISS %:    25.7896   MPKI: 0.4502
PSCL2 TRANSLATION FROM L1D PREFETCHER ACCESS:     260427  HIT:     260427  MISS:          0  HIT %:        100  MISS %:          0   MPKI: 0
PSCL2 PREFETCH  REQUESTED:          0  ISSUED:          0  USEFUL:          0  USELESS:          0
PSCL2 USEFUL LOAD PREFETCHES:          0 PREFETCH ISSUED TO LOWER LEVEL:          0  ACCURACY: -nan
PSCL2 TIMELY PREFETCHES:          0 LATE PREFETCHES: 0 DROPPED PREFETCHES: 0
PSCL2 PREFETCHES SAME FILL-ORIGIN LEVEL: 0 DIFFERENT FILL-ORIGIN LEVEL: 0

LLC TOTAL     ACCESS:    7796564  HIT:    3883179  MISS:    3913385  HIT %:    49.8063  MISS %:    50.1937   MPKI: 19.5669
LLC LOAD      ACCESS:    3027621  HIT:    2238350  MISS:     789271  HIT %:     73.931  MISS %:     26.069   MPKI: 3.94635
LLC RFO       ACCESS:     505082  HIT:          0  MISS:     505082  HIT %:          0  MISS %:        100   MPKI: 2.52541
LLC PREFETCH  ACCESS:    2582638  HIT:      41212  MISS:    2541426  HIT %:    1.59573  MISS %:    98.4043   MPKI: 12.7071
LLC WRITEBACK ACCESS:    1559650  HIT:    1495226  MISS:      64424  HIT %:    95.8693  MISS %:    4.13067   MPKI: 0.32212
LLC LOAD TRANSLATION ACCESS:     115871  HIT:     107837  MISS:       8034  HIT %:    93.0664  MISS %:    6.93357   MPKI: 0.04017
LLC TRANSLATION FROM L1D PREFETCHER ACCESS:       5702  HIT:        554  MISS:       5148  HIT %:    9.71589  MISS %:    90.2841   MPKI: 0.02574
LLC PREFETCH  REQUESTED:          0  ISSUED:          0  USEFUL:     156231  USELESS:   10050653
LLC USEFUL LOAD PREFETCHES:     156231 PREFETCH ISSUED TO LOWER LEVEL:  124484478  ACCURACY: 0.125502
LLC TIMELY PREFETCHES:     156231 LATE PREFETCHES: 0 DROPPED PREFETCHES: 0
LLC PREFETCHES SAME FILL-ORIGIN LEVEL: 0 DIFFERENT FILL-ORIGIN LEVEL: 0
LLC AVERAGE MISS LATENCY: 3444.29 cycles
LLC RQ	ACCESS:   14639349	FORWARD:          0	MERGED:          0	TO_CACHE:   14639349
LLC WQ	ACCESS:    6238973	FORWARD:          0	MERGED:          0	TO_CACHE:    6238973
LLC PQ	ACCESS:   10336282	FORWARD:          0	MERGED:          0	TO_CACHE:   10336282

LLC Dense regions hint to LLC: 0

RAW hits: 3571772
Loads Generated: 60304258
Loads sent to L1D: 56732486
Stores Generated: 14728708
Stores sent to L1D: 14728710
Major fault: 0 Minor fault: 47114
Allocated PAGES: 188456

CPU 2 cumulative IPC: 0.391208 instructions: 200000000 cycles: 511237111
ITLB TOTAL     ACCESS:   31234665  HIT:   31234656  MISS:          9  HIT %:        100  MISS %: 2.88141e-05   MPKI: 4.5e-05
ITLB LOAD TRANSLATION ACCESS:   31234665  HIT:   31234656  MISS:          9  HIT %:        100  MISS %: 2.88141e-05   MPKI: 4.5e-05
ITLB PREFETCH  REQUESTED:          0  ISSUED:          0  USEFUL:          0  USELESS:          0
ITLB USEFUL LOAD PREFETCHES:          0 PREFETCH ISSUED TO LOWER LEVEL:          0  ACCURACY: -nan
ITLB TIMELY PREFETCHES:          0 LATE PREFETCHES: 0 DROPPED PREFETCHES: 0
ITLB PREFETCHES SAME FILL-ORIGIN LEVEL: 0 DIFFERENT FILL-ORIGIN LEVEL: 0
ITLB AVERAGE MISS LATENCY: 1274.89 cycles
ITLB RQ	ACCESS:   34381953	FORWARD:          0	MERGED:    3125026	TO_CACHE:   31256927

DTLB TOTAL     ACCESS:   42657899  HIT:   37866886  MISS:    4791013  HIT %:    88.7688  MISS %:    11.2312   MPKI: 23.9551
DTLB LOAD TRANSLATION ACCESS:   42657899  HIT:   37866886  MISS:    4791013  HIT %:    88.7688  MISS %:    11.2312   MPKI: 23.9551
DTLB PREFETCH  REQUESTED:          0  ISSUED:          0  USEFUL:          0  USELESS:          0
DTLB USEFUL LOAD PREFETCHES:          0 PREFETCH ISSUED TO LOWER LEVEL:          0  ACCURACY: -nan
DTLB TIMELY PREFETCHES:          0 LATE PREFETCHES: 0 DROPPED PREFETCHES: 0
DTLB PREFETCHES SAME FILL-ORIGIN LEVEL: 0 DIFFERENT FILL-ORIGIN LEVEL: 0
DTLB AVERAGE MISS LATENCY: 17.929 cycles
DTLB RQ	ACCESS:   46775063	FORWARD:          0	MERGED:    3499303	TO_CACHE:   43275760

STLB TOTAL     ACCESS:   16749155  HIT:   16372722  MISS:     376433  HIT %:    97.7525  MISS %:    2.24747   MPKI: 1.88217
STLB LOAD TRANSLATION ACCESS:    4791022  HIT:    4441976  MISS:     349046  HIT %:    92.7146  MISS %:    7.28542   MPKI: 1.74523
STLB TRANSLATION FROM L1D PREFETCHER ACCESS:   11958133  HIT:   11930746  MISS:      27387  HIT %:     99.771  MISS %:   0.229024   MPKI: 0.136935
STLB PREFETCH  REQUESTED:          0  ISSUED:          0  USEFUL:      27327  USELESS:         86
STLB USEFUL LOAD PREFETCHES:      27327 PREFETCH ISSUED TO LOWER LEVEL:          0  ACCURACY: inf
STLB TIMELY PREFETCHES:      27327 LATE PREFETCHES: 5315 DROPPED PREFETCHES: 292778
STLB PREFETCHES SAME FILL-ORIGIN LEVEL: 0 DIFFERENT FILL-ORIGIN LEVEL: 0
STLB AVERAGE MISS LATENCY: 116.149 cycles
STLB RQ	ACCESS:   63891117	FORWARD:          0	MERGED:   46787151	TO_CACHE:   17103966

STLB Hit, L1D data hit: 0
STLB Hit, L2C data hit: 0
STLB Hit, LLC data hit: 0
STLB Hit, LLC data miss: 0
STLB STLB hints to L2: 0
L1D TOTAL     ACCESS:   85489549  HIT:   74862797  MISS:   10626752  HIT %:    87.5695  MISS %:    12.4305   MPKI: 53.1338
L1D LOAD      ACCESS:   31277040  HIT:   22263976  MISS:    9013064  HIT %:    71.1831  MISS %:    28.8169   MPKI: 45.0653
L1D RFO       ACCESS:   10607863  HIT:   10102781  MISS:     505082  HIT %:    95.2386  MISS %:    4.76139   MPKI: 2.52541
L1D PREFETCH  ACCESS:   43604646  HIT:   42496040  MISS:    1108606  HIT %:    97.4576  MISS %:     2.5424   MPKI: 5.54303
L1D PREFETCH  REQUESTED:  143499394  ISSUED:  142822201  USEFUL:    1093653  USELESS:      16672
L1D USEFUL LOAD PREFETCHES:    1093653 PREFETCH ISSUED TO LOWER LEVEL:   10625022  ACCURACY: 10.2932
L1D TIMELY PREFETCHES:    1093653 LATE PREFETCHES: 34638 DROPPED PREFETCHES: 901708
L1D PREFETCHES SAME FILL-ORIGIN LEVEL: 1144973 DIFFERENT FILL-ORIGIN LEVEL: 9480049
L1D AVERAGE MISS LATENCY: 227.075 cycles
L1D RQ	ACCESS:   56798098	FORWARD:          0	MERGED:   24158834	TO_CACHE:   32629088
L1D WQ	ACCESS:   14736197	FORWARD:      10176	MERGED:     590222	TO_CACHE:   14145975
L1D PQ	ACCESS:   83732583	FORWARD:          0	MERGED:   24642965	TO_CACHE:   59089618

L1D UNIQUE REGIONS ACCESSED: 0
L1D REGIONS CONFLICTS: 0
L1D Cross Page Prefetch Requests: 8521498
L1D Same Page Prefetch Requests: 96830970
L1D ROI Sum of L1D PQ occupancy: 1050113208
L1D PREFETCHES PUSHED FROM L2C: 0
L1I TOTAL     ACCESS:   34359669  HIT:   34359573  MISS:         96  HIT %:    99.9997  MISS %: 0.000279397   MPKI: 0.00048
L1I LOAD      ACCESS:   34359669  HIT:   34359573  MISS:         96  HIT %:    99.9997  MISS %: 0.000279397   MPKI: 0.00048
L1I PREFETCH  REQUESTED:          0  ISSUED:          0  USEFUL:          0  USELESS:          0
L1I USEFUL LOAD PREFETCHES:          0 PREFETCH ISSUED TO LOWER LEVEL:          0  ACCURACY: -nan
L1I TIMELY PREFETCHES:          0 LATE PREFETCHES: 0 DROPPED PREFETCHES: 0
L1I PREFETCHES SAME FILL-ORIGIN LEVEL: 0 DIFFERENT FILL-ORIGIN LEVEL: 0
L1I AVERAGE MISS LATENCY: 776.469 cycles
L1I RQ	ACCESS:   53257978	FORWARD:          0	MERGED:   18876025	TO_CACHE:   34381953

BTB TOTAL     ACCESS:   19854230  HIT:   19854114  MISS:        116  HIT %:    99.9994  MISS %: 0.000584258   MPKI: 0.00058
BTB BRANCH_DIRECT_JUMP	ACCESS:         47  HIT:         25  MISS:         22
BTB BRANCH_INDIRECT	ACCESS:          0  HIT:          0  MISS:          0
BTB BRANCH_CONDITIONAL	ACCESS:   19854157  HIT:   19854082  MISS:         75
BTB BRANCH_DIRECT_CALL	ACCESS:         13  HIT:          4  MISS:          9
BTB BRANCH_INDIRECT_CALL	ACCESS:          0  HIT:          0  MISS:          0
BTB BRANCH_RETURN	ACCESS:         13  HIT:          3  MISS:         10
BTB BRANCH_OTHER ACCESS:          0  HIT:          0  MISS:          0

L2C TOTAL     ACCESS:   18355314  HIT:   11985019  MISS:    6370295  HIT %:    65.2945  MISS %:    34.7055   MPKI: 31.8515
L2C LOAD      ACCESS:    8978521  HIT:    5453529  MISS:    3524992  HIT %:    60.7397  MISS %:    39.2603   MPKI: 17.625
L2C DATA LOAD MPKI: 17.6245
L2C INSTRUCTION LOAD MPKI: 0.00048
L2C RFO       ACCESS:     505082  HIT:          0  MISS:     505082  HIT %:          0  MISS %:        100   MPKI: 2.52541
L2C PREFETCH  ACCESS:    6484753  HIT:    4381855  MISS:    2102898  HIT %:    67.5717  MISS %:    32.4283   MPKI: 10.5145
L2C DATA PREFETCH MPKI: 10.5145
L2C INSTRUCTION PREFETCH MPKI: 0
L2C WRITEBACK ACCESS:    1559420  HIT:    1442933  MISS:     116487  HIT %:    92.5301  MISS %:    7.46989   MPKI: 0.582435
L2C LOAD TRANSLATION ACCESS:     437848  HIT:     322660  MISS:     115188  HIT %:    73.6922  MISS %:    26.3078   MPKI: 0.57594
L2C TRANSLATION FROM L1D PREFETCHER ACCESS:     389690  HIT:     384042  MISS:       5648  HIT %:    98.5506  MISS %:    1.44936   MPKI: 0.02824
L2C PREFETCH  REQUESTED:          0  ISSUED:          0  USEFUL:     971877  USELESS:    1138913
L2C USEFUL LOAD PREFETCHES:     971877 PREFETCH ISSUED TO LOWER LEVEL:    2585700  ACCURACY: 37.5866
L2C TIMELY PREFETCHES:     971877 LATE PREFETCHES: 481082 DROPPED PREFETCHES: 0
L2C PREFETCHES SAME FILL-ORIGIN LEVEL: 1738767 DIFFERENT FILL-ORIGIN LEVEL: 0
L2C AVERAGE MISS LATENCY: 530.055 cycles
L2C RQ	ACCESS:   10331733	FORWARD:          0	MERGED:          0	TO_CACHE:   10331733
L2C WQ	ACCESS:    1559736	FORWARD:          0	MERGED:          0	TO_CACHE:    1559736
L2C PQ	ACCESS:   10624124	FORWARD:          0	MERGED:     211064	TO_CACHE:   10413060

L2C Instructions Evicting Data 96
L2C Translations Evicting Data 105888
L2C Data Evicting Data 6040131
L2C Instructions Evicting Instructions 0
L2C Translations Evicting Instructions 0
L2C Data Evicting Instructions 93
L2C Instructions Evicting Translations 0
L2C Translations Evicting Translations 17912
L2C Data Evicting Translations 105545
L2C Dense regions hint from L2: 0
PSCL5 TOTAL     ACCESS:     673523  HIT:     673523  MISS:          0  HIT %:        100  MISS %:          0   MPKI: 0
PSCL5 LOAD TRANSLATION ACCESS:     348043  HIT:     348043  MISS:          0  HIT %:        100  MISS %:          0   MPKI: 0
PSCL5 TRANSLATION FROM L1D PREFETCHER ACCESS:     325480  HIT:     325480  MISS:          0  HIT %:        100  MISS %:          0   MPKI: 0
PSCL5 PREFETCH  REQUESTED:          0  ISSUED:          0  USEFUL:          0  USELESS:          0
PSCL5 USEFUL LOAD PREFETCHES:          0 PREFETCH ISSUED TO LOWER LEVEL:          0  ACCURACY: -nan
PSCL5 TIMELY PREFETCHES:          0 LATE PREFETCHES: 0 DROPPED PREFETCHES: 0
PSCL5 PREFETCHES SAME FILL-ORIGIN LEVEL: 0 DIFFERENT FILL-ORIGIN LEVEL: 0

PSCL4 TOTAL     ACCESS:     673517  HIT:     673517  MISS:          0  HIT %:        100  MISS %:          0   MPKI: 0
PSCL4 LOAD TRANSLATION ACCESS:     348043  HIT:     348043  MISS:          0  HIT %:        100  MISS %:          0   MPKI: 0
PSCL4 TRANSLATION FROM L1D PREFETCHER ACCESS:     325474  HIT:     325474  MISS:          0  HIT %:        100  MISS %:          0   MPKI: 0
PSCL4 PREFETCH  REQUESTED:          0  ISSUED:          0  USEFUL:          0  USELESS:          0
PSCL4 USEFUL LOAD PREFETCHES:          0 PREFETCH ISSUED TO LOWER LEVEL:          0  ACCURACY: -nan
PSCL4 TIMELY PREFETCHES:          0 LATE PREFETCHES: 0 DROPPED PREFETCHES: 0
PSCL4 PREFETCHES SAME FILL-ORIGIN LEVEL: 0 DIFFERENT FILL-ORIGIN LEVEL: 0

PSCL3 TOTAL     ACCESS:     673517  HIT:     673517  MISS:          0  HIT %:        100  MISS %:          0   MPKI: 0
PSCL3 LOAD TRANSLATION ACCESS:     348043  HIT:     348043  MISS:          0  HIT %:        100  MISS %:          0   MPKI: 0
PSCL3 TRANSLATION FROM L1D PREFETCHER ACCESS:     325474  HIT:     325474  MISS:          0  HIT %:        100  MISS %:          0   MPKI: 0
PSCL3 PREFETCH  REQUESTED:          0  ISSUED:          0  USEFUL:          0  USELESS:          0
PSCL3 USEFUL LOAD PREFETCHES:          0 PREFETCH ISSUED TO LOWER LEVEL:          0  ACCURACY: -nan
PSCL3 TIMELY PREFETCHES:          0 LATE PREFETCHES: 0 DROPPED PREFETCHES: 0
PSCL3 PREFETCHES SAME FILL-ORIGIN LEVEL: 0 DIFFERENT FILL-ORIGIN LEVEL: 0

PSCL2 TOTAL     ACCESS:     608851  HIT:     518984  MISS:      89867  HIT %:    85.2399  MISS %:    14.7601   MPKI: 0.449335
PSCL2 LOAD TRANSLATION ACCESS:     348074  HIT:     258207  MISS:      89867  HIT %:    74.1816  MISS %:    25.8184   MPKI: 0.449335
PSCL2 TRANSLATION FROM L1D PREFETCHER ACCESS:     260777  HIT:     260777  MISS:          0  HIT %:        100  MISS %:          0   MPKI: 0
PSCL2 PREFETCH  REQUESTED:          0  ISSUED:          0  USEFUL:          0  USELESS:          0
PSCL2 USEFUL LOAD PREFETCHES:          0 PREFETCH ISSUED TO LOWER LEVEL:          0  ACCURACY: -nan
PSCL2 TIMELY PREFETCHES:          0 LATE PREFETCHES: 0 DROPPED PREFETCHES: 0
PSCL2 PREFETCHES SAME FILL-ORIGIN LEVEL: 0 DIFFERENT FILL-ORIGIN LEVEL: 0

LLC TOTAL     ACCESS:    7813482  HIT:    3909296  MISS:    3904186  HIT %:    50.0327  MISS %:    49.9673   MPKI: 19.5209
LLC LOAD      ACCESS:    3043910  HIT:    2263196  MISS:     780714  HIT %:    74.3516  MISS %:    25.6484   MPKI: 3.90357
LLC RFO       ACCESS:     505082  HIT:          0  MISS:     505082  HIT %:          0  MISS %:        100   MPKI: 2.52541
LLC PREFETCH  ACCESS:    2583980  HIT:      41874  MISS:    2542106  HIT %:    1.62052  MISS %:    98.3795   MPKI: 12.7105
LLC WRITEBACK ACCESS:    1559674  HIT:    1496028  MISS:      63646  HIT %:    95.9193  MISS %:    4.08072   MPKI: 0.31823
LLC LOAD TRANSLATION ACCESS:     115188  HIT:     107692  MISS:       7496  HIT %:    93.4924  MISS %:    6.50762   MPKI: 0.03748
LLC TRANSLATION FROM L1D PREFETCHER ACCESS:       5648  HIT:        506  MISS:       5142  HIT %:    8.95892  MISS %:    91.0411   MPKI: 0.02571
LLC PREFETCH  REQUESTED:          0  ISSUED:          0  USEFUL:     156231  USELESS:   10050653
LLC USEFUL LOAD PREFETCHES:     156231 PREFETCH ISSUED TO LOWER LEVEL:  124484478  ACCURACY: 0.125502
LLC TIMELY PREFETCHES:     156231 LATE PREFETCHES: 0 DROPPED PREFETCHES: 0
LLC PREFETCHES SAME FILL-ORIGIN LEVEL: 0 DIFFERENT FILL-ORIGIN LEVEL: 0
LLC AVERAGE MISS LATENCY: 3452.41 cycles
LLC RQ	ACCESS:   14639349	FORWARD:          0	MERGED:          0	TO_CACHE:   14639349
LLC WQ	ACCESS:    6238973	FORWARD:          0	MERGED:          0	TO_CACHE:    6238973
LLC PQ	ACCESS:   10336282	FORWARD:          0	MERGED:          0	TO_CACHE:   10336282

LLC Dense regions hint to LLC: 0

RAW hits: 3569597
Loads Generated: 60304830
Loads sent to L1D: 56735233
Stores Generated: 14728863
Stores sent to L1D: 14728863
Major fault: 0 Minor fault: 47114
Allocated PAGES: 188456

CPU 3 cumulative IPC: 0.390922 instructions: 200000000 cycles: 511611461
ITLB TOTAL     ACCESS:   31219165  HIT:   31219156  MISS:          9  HIT %:        100  MISS %: 2.88284e-05   MPKI: 4.5e-05
ITLB LOAD TRANSLATION ACCESS:   31219165  HIT:   31219156  MISS:          9  HIT %:        100  MISS %: 2.88284e-05   MPKI: 4.5e-05
ITLB PREFETCH  REQUESTED:          0  ISSUED:          0  USEFUL:          0  USELESS:          0
ITLB USEFUL LOAD PREFETCHES:          0 PREFETCH ISSUED TO LOWER LEVEL:          0  ACCURACY: -nan
ITLB TIMELY PREFETCHES:          0 LATE PREFETCHES: 0 DROPPED PREFETCHES: 0
ITLB PREFETCHES SAME FILL-ORIGIN LEVEL: 0 DIFFERENT FILL-ORIGIN LEVEL: 0
ITLB AVERAGE MISS LATENCY: 837.667 cycles
ITLB RQ	ACCESS:   34345520	FORWARD:          0	MERGED:    3113716	TO_CACHE:   31231804

DTLB TOTAL     ACCESS:   42622667  HIT:   37831894  MISS:    4790773  HIT %:      88.76  MISS %:      11.24   MPKI: 23.9539
DTLB LOAD TRANSLATION ACCESS:   42622667  HIT:   37831894  MISS:    4790773  HIT %:      88.76  MISS %:      11.24   MPKI: 23.9539
DTLB PREFETCH  REQUESTED:          0  ISSUED:          0  USEFUL:          0  USELESS:          0
DTLB USEFUL LOAD PREFETCHES:          0 PREFETCH ISSUED TO LOWER LEVEL:          0  ACCURACY: -nan
DTLB TIMELY PREFETCHES:          0 LATE PREFETCHES: 0 DROPPED PREFETCHES: 0
DTLB PREFETCHES SAME FILL-ORIGIN LEVEL: 0 DIFFERENT FILL-ORIGIN LEVEL: 0
DTLB AVERAGE MISS LATENCY: 17.6522 cycles
DTLB RQ	ACCESS:   46716800	FORWARD:          0	MERGED:    3497234	TO_CACHE:   43219566

STLB TOTAL     ACCESS:   16727455  HIT:   16351267  MISS:     376188  HIT %:    97.7511  MISS %:    2.24893   MPKI: 1.88094
STLB LOAD TRANSLATION ACCESS:    4790781  HIT:    4441947  MISS:     348834  HIT %:    92.7186  MISS %:    7.28136   MPKI: 1.74417
STLB TRANSLATION FROM L1D PREFETCHER ACCESS:   11936674  HIT:   11909320  MISS:      27354  HIT %:    99.7708  MISS %:   0.229159   MPKI: 0.13677
STLB PREFETCH  REQUESTED:          0  ISSUED:          0  USEFUL:      27292  USELESS:         79
STLB USEFUL LOAD PREFETCHES:      27292 PREFETCH ISSUED TO LOWER LEVEL:          0  ACCURACY: inf
STLB TIMELY PREFETCHES:      27292 LATE PREFETCHES: 5455 DROPPED PREFETCHES: 292827
STLB PREFETCHES SAME FILL-ORIGIN LEVEL: 0 DIFFERENT FILL-ORIGIN LEVEL: 0
STLB AVERAGE MISS LATENCY: 112.838 cycles
STLB RQ	ACCESS:   63873497	FORWARD:          0	MERGED:   46801189	TO_CACHE:   17072308

STLB Hit, L1D data hit: 0
STLB Hit, L2C data hit: 0
STLB Hit, LLC data hit: 0
STLB Hit, LLC data miss: 0
STLB STLB hints to L2: 0
L1D TOTAL     ACCESS:   85274620  HIT:   74643085  MISS:   10631535  HIT %:    87.5326  MISS %:    12.4674   MPKI: 53.1577
L1D LOAD      ACCESS:   31264623  HIT:   22257306  MISS:    9007317  HIT %:    71.1901  MISS %:    28.8099   MPKI: 45.0366
L1D RFO       ACCESS:   10588231  HIT:   10083149  MISS:     505082  HIT %:    95.2298  MISS %:    4.77022   MPKI: 2.52541
L1D PREFETCH  ACCESS:   43421766  HIT:   42302630  MISS:    1119136  HIT %:    97.4226  MISS %:    2.57736   MPKI: 5.59568
L1D PREFETCH  REQUESTED:  143582592  ISSUED:  142805616  USEFUL:    1098095  USELESS:      22035
L1D USEFUL LOAD PREFETCHES:    1098095 PREFETCH ISSUED TO LOWER LEVEL:   10672804  ACCURACY: 10.2887
L1D TIMELY PREFETCHES:    1098095 LATE PREFETCHES: 35776 DROPPED PREFETCHES: 903033
L1D PREFETCHES SAME FILL-ORIGIN LEVEL: 1155890 DIFFERENT FILL-ORIGIN LEVEL: 9516914
L1D AVERAGE MISS LATENCY: 226.813 cycles
L1D RQ	ACCESS:   56766823	FORWARD:          0	MERGED:   24163616	TO_CACHE:   32592993
L1D WQ	ACCESS:   14732809	FORWARD:      10214	MERGED:     609002	TO_CACHE:   14123807
L1D PQ	ACCESS:   83728480	FORWARD:          0	MERGED:   24651344	TO_CACHE:   59077136

L1D UNIQUE REGIONS ACCESSED: 0
L1D REGIONS CONFLICTS: 0
L1D Cross Page Prefetch Requests: 8523816
L1D Same Page Prefetch Requests: 96776947
L1D ROI Sum of L1D PQ occupancy: 1045872361
L1D PREFETCHES PUSHED FROM L2C: 0
L1I TOTAL     ACCESS:   34332853  HIT:   34332757  MISS:         96  HIT %:    99.9997  MISS %: 0.000279616   MPKI: 0.00048
L1I LOAD      ACCESS:   34332853  HIT:   34332757  MISS:         96  HIT %:    99.9997  MISS %: 0.000279616   MPKI: 0.00048
L1I PREFETCH  REQUESTED:          0  ISSUED:          0  USEFUL:          0  USELESS:          0
L1I USEFUL LOAD PREFETCHES:          0 PREFETCH ISSUED TO LOWER LEVEL:          0  ACCURACY: -nan
L1I TIMELY PREFETCHES:          0 LATE PREFETCHES: 0 DROPPED PREFETCHES: 0
L1I PREFETCHES SAME FILL-ORIGIN LEVEL: 0 DIFFERENT FILL-ORIGIN LEVEL: 0
L1I AVERAGE MISS LATENCY: 657.625 cycles
L1I RQ	ACCESS:   53245686	FORWARD:          0	MERGED:   18900166	TO_CACHE:   34345520

BTB TOTAL     ACCESS:   19855026  HIT:   19854905  MISS:        121  HIT %:    99.9994  MISS %: 0.000609417   MPKI: 0.000605
BTB BRANCH_DIRECT_JUMP	ACCESS:         47  HIT:         25  MISS:         22
BTB BRANCH_INDIRECT	ACCESS:          0  HIT:          0  MISS:          0
BTB BRANCH_CONDITIONAL	ACCESS:   19854953  HIT:   19854873  MISS:         80
BTB BRANCH_DIRECT_CALL	ACCESS:         13  HIT:          4  MISS:          9
BTB BRANCH_INDIRECT_CALL	ACCESS:          0  HIT:          0  MISS:          0
BTB BRANCH_RETURN	ACCESS:         13  HIT:          3  MISS:         10
BTB BRANCH_OTHER ACCESS:          0  HIT:          0  MISS:          0

L2C TOTAL     ACCESS:   18372835  HIT:   12031803  MISS:    6341032  HIT %:    65.4869  MISS %:    34.5131   MPKI: 31.7052
L2C LOAD      ACCESS:    8971637  HIT:    5482474  MISS:    3489163  HIT %:     61.109  MISS %:     38.891   MPKI: 17.4458
L2C DATA LOAD MPKI: 17.4453
L2C INSTRUCTION LOAD MPKI: 0.00048
L2C RFO       ACCESS:     505082  HIT:          0  MISS:     505082  HIT %:          0  MISS %:        100   MPKI: 2.52541
L2C PREFETCH  ACCESS:    6509369  HIT:    4402482  MISS:    2106887  HIT %:     67.633  MISS %:     32.367   MPKI: 10.5344
L2C DATA PREFETCH MPKI: 10.5344
L2C INSTRUCTION PREFETCH MPKI: 0
L2C WRITEBACK ACCESS:    1559479  HIT:    1441627  MISS:     117852  HIT %:    92.4429  MISS %:    7.55714   MPKI: 0.58926
L2C LOAD TRANSLATION ACCESS:     437624  HIT:     321259  MISS:     116365  HIT %:    73.4098  MISS %:    26.5902   MPKI: 0.581825
L2C TRANSLATION FROM L1D PREFETCHER ACCESS:     389644  HIT:     383961  MISS:       5683  HIT %:    98.5415  MISS %:    1.45851   MPKI: 0.028415
L2C PREFETCH  REQUESTED:          0  ISSUED:          0  USEFUL:     969331  USELESS:    1144755
L2C USEFUL LOAD PREFETCHES:     969331 PREFETCH ISSUED TO LOWER LEVEL:    2585767  ACCURACY: 37.4872
L2C TIMELY PREFETCHES:     969331 LATE PREFETCHES: 477881 DROPPED PREFETCHES: 0
L2C PREFETCHES SAME FILL-ORIGIN LEVEL: 1737550 DIFFERENT FILL-ORIGIN LEVEL: 0
L2C AVERAGE MISS LATENCY: 531.491 cycles
L2C RQ	ACCESS:   10315016	FORWARD:          0	MERGED:          0	TO_CACHE:   10315016
L2C WQ	ACCESS:    1559643	FORWARD:          0	MERGED:          0	TO_CACHE:    1559643
L2C PQ	ACCESS:   10670869	FORWARD:          0	MERGED:     209684	TO_CACHE:   10461185

L2C Instructions Evicting Data 96
L2C Translations Evicting Data 103449
L2C Data Evicting Data 6004429
L2C Instructions Evicting Instructions 0
L2C Translations Evicting Instructions 0
L2C Data Evicting Instructions 95
L2C Instructions Evicting Translations 0
L2C Translations Evicting Translations 20734
L2C Data Evicting Translations 103422
L2C Dense regions hint from L2: 0
PSCL5 TOTAL     ACCESS:     673394  HIT:     673394  MISS:          0  HIT %:        100  MISS %:          0   MPKI: 0
PSCL5 LOAD TRANSLATION ACCESS:     347758  HIT:     347758  MISS:          0  HIT %:        100  MISS %:          0   MPKI: 0
PSCL5 TRANSLATION FROM L1D PREFETCHER ACCESS:     325636  HIT:     325636  MISS:          0  HIT %:        100  MISS %:          0   MPKI: 0
PSCL5 PREFETCH  REQUESTED:          0  ISSUED:          0  USEFUL:          0  USELESS:          0
PSCL5 USEFUL LOAD PREFETCHES:          0 PREFETCH ISSUED TO LOWER LEVEL:          0  ACCURACY: -nan
PSCL5 TIMELY PREFETCHES:          0 LATE PREFETCHES: 0 DROPPED PREFETCHES: 0
PSCL5 PREFETCHES SAME FILL-ORIGIN LEVEL: 0 DIFFERENT FILL-ORIGIN LEVEL: 0

PSCL4 TOTAL     ACCESS:     673388  HIT:     673388  MISS:          0  HIT %:        100  MISS %:          0   MPKI: 0
PSCL4 LOAD TRANSLATION ACCESS:     347758  HIT:     347758  MISS:          0  HIT %:        100  MISS %:          0   MPKI: 0
PSCL4 TRANSLATION FROM L1D PREFETCHER ACCESS:     325630  HIT:     325630  MISS:          0  HIT %:        100  MISS %:          0   MPKI: 0
PSCL4 PREFETCH  REQUESTED:          0  ISSUED:          0  USEFUL:          0  USELESS:          0
PSCL4 USEFUL LOAD PREFETCHES:          0 PREFETCH ISSUED TO LOWER LEVEL:          0  ACCURACY: -nan
PSCL4 TIMELY PREFETCHES:          0 LATE PREFETCHES: 0 DROPPED PREFETCHES: 0
PSCL4 PREFETCHES SAME FILL-ORIGIN LEVEL: 0 DIFFERENT FILL-ORIGIN LEVEL: 0

PSCL3 TOTAL     ACCESS:     673388  HIT:     673388  MISS:          0  HIT %:        100  MISS %:          0   MPKI: 0
PSCL3 LOAD TRANSLATION ACCESS:     347758  HIT:     347758  MISS:          0  HIT %:        100  MISS %:          0   MPKI: 0
PSCL3 TRANSLATION FROM L1D PREFETCHER ACCESS:     325630  HIT:     325630  MISS:          0  HIT %:        100  MISS %:          0   MPKI: 0
PSCL3 PREFETCH  REQUESTED:          0  ISSUED:          0  USEFUL:          0  USELESS:          0
PSCL3 USEFUL LOAD PREFETCHES:          0 PREFETCH ISSUED TO LOWER LEVEL:          0  ACCURACY: -nan
PSCL3 TIMELY PREFETCHES:          0 LATE PREFETCHES: 0 DROPPED PREFETCHES: 0
PSCL3 PREFETCHES SAME FILL-ORIGIN LEVEL: 0 DIFFERENT FILL-ORIGIN LEVEL: 0

PSCL2 TOTAL     ACCESS:     608890  HIT:     518967  MISS:      89923  HIT %:    85.2317  MISS %:    14.7683   MPKI: 0.449615
PSCL2 LOAD TRANSLATION ACCESS:     347784  HIT:     257861  MISS:      89923  HIT %:     74.144  MISS %:     25.856   MPKI: 0.449615
PSCL2 TRANSLATION FROM L1D PREFETCHER ACCESS:     261106  HIT:     261106  MISS:          0  HIT %:        100  MISS %:          0   MPKI: 0
PSCL2 PREFETCH  REQUESTED:          0  ISSUED:          0  USEFUL:          0  USELESS:          0
PSCL2 USEFUL LOAD PREFETCHES:          0 PREFETCH ISSUED TO LOWER LEVEL:          0  ACCURACY: -nan
PSCL2 TIMELY PREFETCHES:          0 LATE PREFETCHES: 0 DROPPED PREFETCHES: 0
PSCL2 PREFETCHES SAME FILL-ORIGIN LEVEL: 0 DIFFERENT FILL-ORIGIN LEVEL: 0

LLC TOTAL     ACCESS:    7782907  HIT:    3874154  MISS:    3908753  HIT %:    49.7777  MISS %:    50.2223   MPKI: 19.5438
LLC LOAD      ACCESS:    3011282  HIT:    2225972  MISS:     785310  HIT %:    73.9211  MISS %:    26.0789   MPKI: 3.92655
LLC RFO       ACCESS:     505082  HIT:          0  MISS:     505082  HIT %:          0  MISS %:        100   MPKI: 2.52541
LLC PREFETCH  ACCESS:    2584769  HIT:      42372  MISS:    2542397  HIT %:     1.6393  MISS %:    98.3607   MPKI: 12.712
LLC WRITEBACK ACCESS:    1559726  HIT:    1495199  MISS:      64527  HIT %:    95.8629  MISS %:    4.13707   MPKI: 0.322635
LLC LOAD TRANSLATION ACCESS:     116365  HIT:     110064  MISS:       6301  HIT %:    94.5851  MISS %:    5.41486   MPKI: 0.031505
LLC TRANSLATION FROM L1D PREFETCHER ACCESS:       5683  HIT:        547  MISS:       5136  HIT %:     9.6252  MISS %:    90.3748   MPKI: 0.02568
LLC PREFETCH  REQUESTED:          0  ISSUED:          0  USEFUL:     156231  USELESS:   10050653
LLC USEFUL LOAD PREFETCHES:     156231 PREFETCH ISSUED TO LOWER LEVEL:  124484478  ACCURACY: 0.125502
LLC TIMELY PREFETCHES:     156231 LATE PREFETCHES: 0 DROPPED PREFETCHES: 0
LLC PREFETCHES SAME FILL-ORIGIN LEVEL: 0 DIFFERENT FILL-ORIGIN LEVEL: 0
LLC AVERAGE MISS LATENCY: 3448.38 cycles
LLC RQ	ACCESS:   14639349	FORWARD:          0	MERGED:          0	TO_CACHE:   14639349
LLC WQ	ACCESS:    6238973	FORWARD:          0	MERGED:          0	TO_CACHE:    6238973
LLC PQ	ACCESS:   10336282	FORWARD:          0	MERGED:          0	TO_CACHE:   10336282

LLC Dense regions hint to LLC: 0

RAW hits: 3572815
Loads Generated: 60303816
Loads sent to L1D: 56730994
Stores Generated: 14728604
Stores sent to L1D: 14728606
Major fault: 0 Minor fault: 47114
Allocated PAGES: 188456

DRAM Statistics
 CHANNEL 0
 RQ ROW_BUFFER_HIT:    3102768  ROW_BUFFER_MISS:   12303527
 DBUS_CONGESTED:        967
 WQ ROW_BUFFER_HIT:     719182  ROW_BUFFER_MISS:    5523240  FULL:      20959

 AVG_CONGESTED_CYCLE: 5
 All warmup complete: 5
Channel 0 Bank busy for read cycles: 0
Channel 0 Bank busy for write cycles: 0
Channel 0
Rank 0
0banks busy for read cycles: 89606
0banks busy for write cycles: 24
1banks busy for read cycles: 9996141
1banks busy for write cycles: 622449
2banks busy for read cycles: 19683295
2banks busy for write cycles: 619112
3banks busy for read cycles: 25606687
3banks busy for write cycles: 620007
4banks busy for read cycles: 30366366
4banks busy for write cycles: 618337
5banks busy for read cycles: 38640102
5banks busy for write cycles: 626059
6banks busy for read cycles: 47548830
6banks busy for write cycles: 766019
7banks busy for read cycles: 43824076
7banks busy for write cycles: 9094121
8banks busy for read cycles: 141355431
8banks busy for write cycles: 142559007

CPU 0 Branch Prediction Accuracy: 99.1526% MPKI: 1.37876 Average ROB Occupancy at Mispredict: 166.456
Branch types
NOT_BRANCH: 167465530 83.7182%
BRANCH_DIRECT_JUMP: 47 2.34959e-05%
BRANCH_INDIRECT: 0 0%
BRANCH_CONDITIONAL: 32569145 16.2817%
BRANCH_DIRECT_CALL: 13 6.49887e-06%
BRANCH_INDIRECT_CALL: 0 0%
BRANCH_RETURN: 13 6.49887e-06%
BRANCH_OTHER: 0 0%


CPU 1 Branch Prediction Accuracy: 99.1551% MPKI: 1.3752 Average ROB Occupancy at Mispredict: 166.753
Branch types
NOT_BRANCH: 167434994 83.7175%
BRANCH_DIRECT_JUMP: 47 2.35e-05%
BRANCH_INDIRECT: 0 0%
BRANCH_CONDITIONAL: 32564976 16.2825%
BRANCH_DIRECT_CALL: 13 6.5e-06%
BRANCH_INDIRECT_CALL: 0 0%
BRANCH_RETURN: 13 6.5e-06%
BRANCH_OTHER: 0 0%


CPU 2 Branch Prediction Accuracy: 99.149% MPKI: 1.38514 Average ROB Occupancy at Mispredict: 166.118
Branch types
NOT_BRANCH: 167587675 83.7208%
BRANCH_DIRECT_JUMP: 47 2.34795e-05%
BRANCH_INDIRECT: 0 0%
BRANCH_CONDITIONAL: 32586896 16.2792%
BRANCH_DIRECT_CALL: 13 6.49433e-06%
BRANCH_INDIRECT_CALL: 0 0%
BRANCH_RETURN: 13 6.49433e-06%
BRANCH_OTHER: 0 0%


CPU 3 Branch Prediction Accuracy: 99.1521% MPKI: 1.38037 Average ROB Occupancy at Mispredict: 166.471
Branch types
NOT_BRANCH: 167521290 83.719%
BRANCH_DIRECT_JUMP: 47 2.34883e-05%
BRANCH_INDIRECT: 0 0%
BRANCH_CONDITIONAL: 32577810 16.2808%
BRANCH_DIRECT_CALL: 13 6.49677e-06%
BRANCH_INDIRECT_CALL: 0 0%
BRANCH_RETURN: 13 6.49677e-06%
BRANCH_OTHER: 0 0%

DRAM PAGES: 1048576
Allocated PAGES: 188456
