
*** ChampSim Multicore Out-of-Order Simulator ***

Warmup Instructions: 50000000
Simulation Instructions: 200000000
Number of CPUs: 4
LLC sets: 8192
LLC ways: 16
Off-chip DRAM Size: 4096 MB Channels: 1 Width: 64-bit Data Rate: 6400 MT/s
CPU 0 runs ./traces/spec/481.wrf-816B.champsimtrace.xz
.xz
CPU 1 runs ./traces/spec/481.wrf-816B.champsimtrace.xz
.xz
CPU 2 runs ./traces/spec/481.wrf-816B.champsimtrace.xz
.xz
CPU 3 runs ./traces/spec/481.wrf-816B.champsimtrace.xz
.xz
BTB has LRU replacement policy
ITLB has LRU replacement policy
DTLB has LRU replacement policy
STLB has LRU replacement policy
L1I has LRU replacement policy
History Sets: 8
History Ways: 16
BERTI Size: 16
BERTI Stride Size: 8
L1D has LRU replacement policy
Initialize SRRIP state for L2C
Initialize DRRIP state for LLC
BTB has LRU replacement policy
ITLB has LRU replacement policy
DTLB has LRU replacement policy
STLB has LRU replacement policy
L1I has LRU replacement policy
History Sets: 8
History Ways: 16
BERTI Size: 16
BERTI Stride Size: 8
L1D has LRU replacement policy
Initialize SRRIP state for L2C
Initialize DRRIP state for LLC
BTB has LRU replacement policy
ITLB has LRU replacement policy
DTLB has LRU replacement policy
STLB has LRU replacement policy
L1I has LRU replacement policy
History Sets: 8
History Ways: 16
BERTI Size: 16
BERTI Stride Size: 8
L1D has LRU replacement policy
Initialize SRRIP state for L2C
Initialize DRRIP state for LLC
BTB has LRU replacement policy
ITLB has LRU replacement policy
DTLB has LRU replacement policy
STLB has LRU replacement policy
L1I has LRU replacement policy
History Sets: 8
History Ways: 16
BERTI Size: 16
BERTI Stride Size: 8
L1D has LRU replacement policy
Initialize SRRIP state for L2C
Initialize DRRIP state for LLC
Heartbeat CPU 0 instructions: 10000000 cycles: 3194803 heartbeat IPC: 3.13008 cumulative IPC: 3.13008 (Simulation time: 0 hr 4 min 4 sec) 
Heartbeat CPU 1 instructions: 10000000 cycles: 3194859 heartbeat IPC: 3.13003 cumulative IPC: 3.13003 (Simulation time: 0 hr 4 min 4 sec) 
Heartbeat CPU 2 instructions: 10000000 cycles: 3194904 heartbeat IPC: 3.12998 cumulative IPC: 3.12998 (Simulation time: 0 hr 4 min 4 sec) 
Heartbeat CPU 3 instructions: 10000000 cycles: 3194938 heartbeat IPC: 3.12995 cumulative IPC: 3.12995 (Simulation time: 0 hr 4 min 4 sec) 
Heartbeat CPU 0 instructions: 20000001 cycles: 6207928 heartbeat IPC: 3.31881 cumulative IPC: 3.22169 (Simulation time: 0 hr 7 min 28 sec) 
Heartbeat CPU 1 instructions: 20000001 cycles: 6208003 heartbeat IPC: 3.31879 cumulative IPC: 3.22165 (Simulation time: 0 hr 7 min 28 sec) 
Heartbeat CPU 2 instructions: 20000001 cycles: 6208072 heartbeat IPC: 3.31877 cumulative IPC: 3.22161 (Simulation time: 0 hr 7 min 28 sec) 
Heartbeat CPU 3 instructions: 20000001 cycles: 6208109 heartbeat IPC: 3.31876 cumulative IPC: 3.22159 (Simulation time: 0 hr 7 min 28 sec) 
Heartbeat CPU 0 instructions: 30000002 cycles: 9147503 heartbeat IPC: 3.40185 cumulative IPC: 3.27958 (Simulation time: 0 hr 10 min 45 sec) 
Heartbeat CPU 1 instructions: 30000002 cycles: 9147591 heartbeat IPC: 3.40184 cumulative IPC: 3.27955 (Simulation time: 0 hr 10 min 45 sec) 
Heartbeat CPU 2 instructions: 30000002 cycles: 9147685 heartbeat IPC: 3.40181 cumulative IPC: 3.27952 (Simulation time: 0 hr 10 min 45 sec) 
Heartbeat CPU 3 instructions: 30000002 cycles: 9147781 heartbeat IPC: 3.40174 cumulative IPC: 3.27948 (Simulation time: 0 hr 10 min 45 sec) 
Heartbeat CPU 0 instructions: 40000002 cycles: 12067451 heartbeat IPC: 3.42472 cumulative IPC: 3.3147 (Simulation time: 0 hr 13 min 39 sec) 
Heartbeat CPU 1 instructions: 40000002 cycles: 12067539 heartbeat IPC: 3.42472 cumulative IPC: 3.31468 (Simulation time: 0 hr 13 min 39 sec) 
Heartbeat CPU 2 instructions: 40000002 cycles: 12067621 heartbeat IPC: 3.42473 cumulative IPC: 3.31466 (Simulation time: 0 hr 13 min 39 sec) 
Heartbeat CPU 3 instructions: 40000002 cycles: 12067723 heartbeat IPC: 3.42473 cumulative IPC: 3.31463 (Simulation time: 0 hr 13 min 39 sec) 
Heartbeat CPU 1 instructions: 50000000 cycles: 14971637 heartbeat IPC: 3.44341 cumulative IPC: 3.33965 (Simulation time: 0 hr 16 min 34 sec) 
Heartbeat CPU 2 instructions: 50000000 cycles: 14971726 heartbeat IPC: 3.4434 cumulative IPC: 3.33963 (Simulation time: 0 hr 16 min 34 sec) 
Heartbeat CPU 3 instructions: 50000000 cycles: 14971804 heartbeat IPC: 3.44343 cumulative IPC: 3.33961 (Simulation time: 0 hr 16 min 34 sec) 
Heartbeat CPU 0 instructions: 50000002 cycles: 14985617 heartbeat IPC: 3.42681 cumulative IPC: 3.33653 (Simulation time: 0 hr 16 min 35 sec) 

Warmup complete CPU 0 instructions: 50000002 cycles: 14985617 (Simulation time: 0 hr 16 min 35 sec) 
Warmup complete CPU 1 instructions: 50048499 cycles: 14985616 (Simulation time: 0 hr 16 min 35 sec) 
Warmup complete CPU 2 instructions: 50048197 cycles: 14985616 (Simulation time: 0 hr 16 min 35 sec) 
Warmup complete CPU 3 instructions: 50047926 cycles: 14985616 (Simulation time: 0 hr 16 min 35 sec) 

Heartbeat CPU 2 instructions: 60000003 cycles: 22593565 heartbeat IPC: 1.31202 cumulative IPC: 1.30808 (Simulation time: 0 hr 20 min 0 sec) 
Heartbeat CPU 1 instructions: 60000003 cycles: 22596745 heartbeat IPC: 1.31146 cumulative IPC: 1.30749 (Simulation time: 0 hr 20 min 0 sec) 
Heartbeat CPU 3 instructions: 60000003 cycles: 22646261 heartbeat IPC: 1.30302 cumulative IPC: 1.29912 (Simulation time: 0 hr 20 min 2 sec) 
Heartbeat CPU 0 instructions: 60000003 cycles: 22711542 heartbeat IPC: 1.29434 cumulative IPC: 1.29434 (Simulation time: 0 hr 20 min 4 sec) 
Heartbeat CPU 2 instructions: 70000000 cycles: 31381171 heartbeat IPC: 1.13797 cumulative IPC: 1.2169 (Simulation time: 0 hr 23 min 59 sec) 
Heartbeat CPU 1 instructions: 70000000 cycles: 31397668 heartbeat IPC: 1.13624 cumulative IPC: 1.21566 (Simulation time: 0 hr 23 min 59 sec) 
Heartbeat CPU 3 instructions: 70000000 cycles: 31665889 heartbeat IPC: 1.10869 cumulative IPC: 1.19615 (Simulation time: 0 hr 24 min 6 sec) 
Heartbeat CPU 0 instructions: 70000000 cycles: 31696965 heartbeat IPC: 1.11291 cumulative IPC: 1.19679 (Simulation time: 0 hr 24 min 7 sec) 
Heartbeat CPU 1 instructions: 80000000 cycles: 41638576 heartbeat IPC: 0.976476 cumulative IPC: 1.12376 (Simulation time: 0 hr 28 min 21 sec) 
Heartbeat CPU 2 instructions: 80000000 cycles: 41688384 heartbeat IPC: 0.970194 cumulative IPC: 1.12167 (Simulation time: 0 hr 28 min 23 sec) 
Heartbeat CPU 0 instructions: 80000000 cycles: 41841360 heartbeat IPC: 0.985766 cumulative IPC: 1.11708 (Simulation time: 0 hr 28 min 29 sec) 
Heartbeat CPU 3 instructions: 80000000 cycles: 41894687 heartbeat IPC: 0.977632 cumulative IPC: 1.11308 (Simulation time: 0 hr 28 min 31 sec) 
Heartbeat CPU 1 instructions: 90000002 cycles: 47727214 heartbeat IPC: 1.6424 cumulative IPC: 1.22021 (Simulation time: 0 hr 32 min 15 sec) 
Heartbeat CPU 2 instructions: 90000002 cycles: 47806450 heartbeat IPC: 1.6345 cumulative IPC: 1.21727 (Simulation time: 0 hr 32 min 18 sec) 
Heartbeat CPU 0 instructions: 90000002 cycles: 47897027 heartbeat IPC: 1.65135 cumulative IPC: 1.21538 (Simulation time: 0 hr 32 min 21 sec) 
Heartbeat CPU 3 instructions: 90000002 cycles: 47938188 heartbeat IPC: 1.65467 cumulative IPC: 1.21241 (Simulation time: 0 hr 32 min 23 sec) 
Heartbeat CPU 1 instructions: 100000001 cycles: 65048889 heartbeat IPC: 0.577311 cumulative IPC: 0.997767 (Simulation time: 0 hr 37 min 11 sec) 
Heartbeat CPU 2 instructions: 100000001 cycles: 65271548 heartbeat IPC: 0.57257 cumulative IPC: 0.993355 (Simulation time: 0 hr 37 min 15 sec) 
Heartbeat CPU 0 instructions: 100000001 cycles: 65355768 heartbeat IPC: 0.572779 cumulative IPC: 0.992651 (Simulation time: 0 hr 37 min 16 sec) 
Heartbeat CPU 3 instructions: 100000001 cycles: 65399191 heartbeat IPC: 0.572705 cumulative IPC: 0.990846 (Simulation time: 0 hr 37 min 17 sec) 
Heartbeat CPU 1 instructions: 110000000 cycles: 80253507 heartbeat IPC: 0.657695 cumulative IPC: 0.918545 (Simulation time: 0 hr 42 min 7 sec) 
Heartbeat CPU 0 instructions: 110000000 cycles: 80464442 heartbeat IPC: 0.661871 cumulative IPC: 0.916327 (Simulation time: 0 hr 42 min 11 sec) 
Heartbeat CPU 3 instructions: 110000000 cycles: 80501277 heartbeat IPC: 0.66216 cumulative IPC: 0.91508 (Simulation time: 0 hr 42 min 12 sec) 
Heartbeat CPU 2 instructions: 110000000 cycles: 80655303 heartbeat IPC: 0.650036 cumulative IPC: 0.91293 (Simulation time: 0 hr 42 min 15 sec) 
Heartbeat CPU 0 instructions: 120000001 cycles: 97174215 heartbeat IPC: 0.598452 cumulative IPC: 0.8517 (Simulation time: 0 hr 46 min 51 sec) 
Heartbeat CPU 1 instructions: 120000000 cycles: 97368893 heartbeat IPC: 0.58427 cumulative IPC: 0.849098 (Simulation time: 0 hr 46 min 55 sec) 
Heartbeat CPU 2 instructions: 120000001 cycles: 97459948 heartbeat IPC: 0.595074 cumulative IPC: 0.848165 (Simulation time: 0 hr 46 min 56 sec) 
Heartbeat CPU 3 instructions: 120000000 cycles: 97831560 heartbeat IPC: 0.577025 cumulative IPC: 0.844363 (Simulation time: 0 hr 47 min 3 sec) 
Heartbeat CPU 2 instructions: 130000002 cycles: 115531844 heartbeat IPC: 0.553345 cumulative IPC: 0.795175 (Simulation time: 0 hr 51 min 59 sec) 
Heartbeat CPU 0 instructions: 130000002 cycles: 115769907 heartbeat IPC: 0.537759 cumulative IPC: 0.793774 (Simulation time: 0 hr 52 min 4 sec) 
Heartbeat CPU 1 instructions: 130000002 cycles: 115989859 heartbeat IPC: 0.537029 cumulative IPC: 0.791566 (Simulation time: 0 hr 52 min 7 sec) 
Heartbeat CPU 3 instructions: 130000002 cycles: 117293559 heartbeat IPC: 0.513822 cumulative IPC: 0.781485 (Simulation time: 0 hr 52 min 31 sec) 
Heartbeat CPU 1 instructions: 140000001 cycles: 134519449 heartbeat IPC: 0.539677 cumulative IPC: 0.752519 (Simulation time: 0 hr 56 min 53 sec) 
Heartbeat CPU 2 instructions: 140000001 cycles: 134600514 heartbeat IPC: 0.52442 cumulative IPC: 0.752012 (Simulation time: 0 hr 56 min 55 sec) 
Heartbeat CPU 0 instructions: 140000001 cycles: 134819087 heartbeat IPC: 0.524957 cumulative IPC: 0.751042 (Simulation time: 0 hr 57 min 0 sec) 
Heartbeat CPU 3 instructions: 140000001 cycles: 136394517 heartbeat IPC: 0.523534 cumulative IPC: 0.740902 (Simulation time: 0 hr 57 min 35 sec) 
Heartbeat CPU 2 instructions: 150000000 cycles: 146944088 heartbeat IPC: 0.810138 cumulative IPC: 0.757449 (Simulation time: 1 hr 1 min 23 sec) 
Heartbeat CPU 0 instructions: 150000002 cycles: 147162416 heartbeat IPC: 0.810154 cumulative IPC: 0.756562 (Simulation time: 1 hr 1 min 28 sec) 
Heartbeat CPU 1 instructions: 150000000 cycles: 147193951 heartbeat IPC: 0.788986 cumulative IPC: 0.756015 (Simulation time: 1 hr 1 min 29 sec) 
Heartbeat CPU 3 instructions: 150000000 cycles: 148669470 heartbeat IPC: 0.814667 cumulative IPC: 0.747675 (Simulation time: 1 hr 2 min 5 sec) 
Heartbeat CPU 0 instructions: 160000001 cycles: 160892265 heartbeat IPC: 0.72834 cumulative IPC: 0.753907 (Simulation time: 1 hr 5 min 58 sec) 
Heartbeat CPU 2 instructions: 160000001 cycles: 161027368 heartbeat IPC: 0.710062 cumulative IPC: 0.752879 (Simulation time: 1 hr 6 min 2 sec) 
Heartbeat CPU 1 instructions: 160000001 cycles: 161229745 heartbeat IPC: 0.712464 cumulative IPC: 0.751835 (Simulation time: 1 hr 6 min 7 sec) 
Heartbeat CPU 3 instructions: 160000001 cycles: 161553356 heartbeat IPC: 0.776163 cumulative IPC: 0.750179 (Simulation time: 1 hr 6 min 14 sec) 
Heartbeat CPU 0 instructions: 170000001 cycles: 170541522 heartbeat IPC: 1.03635 cumulative IPC: 0.771427 (Simulation time: 1 hr 9 min 54 sec) 
Heartbeat CPU 2 instructions: 170000001 cycles: 170728788 heartbeat IPC: 1.03078 cumulative IPC: 0.77019 (Simulation time: 1 hr 9 min 59 sec) 
Heartbeat CPU 1 instructions: 170000001 cycles: 170905265 heartbeat IPC: 1.03354 cumulative IPC: 0.769316 (Simulation time: 1 hr 10 min 3 sec) 
Heartbeat CPU 3 instructions: 170000001 cycles: 171391577 heartbeat IPC: 1.01644 cumulative IPC: 0.766928 (Simulation time: 1 hr 10 min 14 sec) 
Heartbeat CPU 0 instructions: 180000000 cycles: 184347324 heartbeat IPC: 0.724333 cumulative IPC: 0.767588 (Simulation time: 1 hr 14 min 3 sec) 
Heartbeat CPU 1 instructions: 180000000 cycles: 184567229 heartbeat IPC: 0.731959 cumulative IPC: 0.766307 (Simulation time: 1 hr 14 min 11 sec) 
Heartbeat CPU 2 instructions: 180000000 cycles: 184668878 heartbeat IPC: 0.717355 cumulative IPC: 0.765849 (Simulation time: 1 hr 14 min 14 sec) 
Heartbeat CPU 3 instructions: 180000000 cycles: 185233867 heartbeat IPC: 0.722424 cumulative IPC: 0.763309 (Simulation time: 1 hr 14 min 33 sec) 
Heartbeat CPU 0 instructions: 190000002 cycles: 192110265 heartbeat IPC: 1.28817 cumulative IPC: 0.790404 (Simulation time: 1 hr 18 min 37 sec) 
Heartbeat CPU 1 instructions: 190000002 cycles: 192291638 heartbeat IPC: 1.2946 cumulative IPC: 0.789322 (Simulation time: 1 hr 18 min 43 sec) 
Heartbeat CPU 2 instructions: 190000002 cycles: 192381303 heartbeat IPC: 1.29661 cumulative IPC: 0.788925 (Simulation time: 1 hr 18 min 46 sec) 
Heartbeat CPU 3 instructions: 190000002 cycles: 192919716 heartbeat IPC: 1.30109 cumulative IPC: 0.786539 (Simulation time: 1 hr 19 min 7 sec) 
Heartbeat CPU 0 instructions: 200000000 cycles: 199417665 heartbeat IPC: 1.36848 cumulative IPC: 0.813308 (Simulation time: 1 hr 22 min 55 sec) 
Heartbeat CPU 1 instructions: 200000002 cycles: 199594184 heartbeat IPC: 1.36939 cumulative IPC: 0.812267 (Simulation time: 1 hr 23 min 1 sec) 
Heartbeat CPU 2 instructions: 200000002 cycles: 199684583 heartbeat IPC: 1.36925 cumulative IPC: 0.811871 (Simulation time: 1 hr 23 min 5 sec) 
Heartbeat CPU 3 instructions: 200000002 cycles: 200231649 heartbeat IPC: 1.36763 cumulative IPC: 0.809475 (Simulation time: 1 hr 23 min 26 sec) 
Heartbeat CPU 0 instructions: 210000001 cycles: 206713504 heartbeat IPC: 1.37064 cumulative IPC: 0.834516 (Simulation time: 1 hr 27 min 32 sec) 
Heartbeat CPU 1 instructions: 210000001 cycles: 206896267 heartbeat IPC: 1.36947 cumulative IPC: 0.833469 (Simulation time: 1 hr 27 min 38 sec) 
Heartbeat CPU 2 instructions: 210000001 cycles: 206996386 heartbeat IPC: 1.36765 cumulative IPC: 0.833036 (Simulation time: 1 hr 27 min 41 sec) 
Heartbeat CPU 3 instructions: 210000001 cycles: 207557250 heartbeat IPC: 1.36508 cumulative IPC: 0.830611 (Simulation time: 1 hr 28 min 4 sec) 
Heartbeat CPU 0 instructions: 220000000 cycles: 213988484 heartbeat IPC: 1.37457 cumulative IPC: 0.854259 (Simulation time: 1 hr 31 min 55 sec) 
Heartbeat CPU 1 instructions: 220000000 cycles: 214169367 heartbeat IPC: 1.37493 cumulative IPC: 0.85324 (Simulation time: 1 hr 32 min 1 sec) 
Heartbeat CPU 2 instructions: 220000000 cycles: 214288856 heartbeat IPC: 1.37128 cumulative IPC: 0.85273 (Simulation time: 1 hr 32 min 6 sec) 
Heartbeat CPU 3 instructions: 220000000 cycles: 214836321 heartbeat IPC: 1.3738 cumulative IPC: 0.850395 (Simulation time: 1 hr 32 min 26 sec) 
Heartbeat CPU 0 instructions: 230000000 cycles: 221284757 heartbeat IPC: 1.37056 cumulative IPC: 0.872519 (Simulation time: 1 hr 36 min 1 sec) 
Heartbeat CPU 1 instructions: 230000000 cycles: 221433055 heartbeat IPC: 1.37671 cumulative IPC: 0.871658 (Simulation time: 1 hr 36 min 5 sec) 
Heartbeat CPU 2 instructions: 230000000 cycles: 221581345 heartbeat IPC: 1.37127 cumulative IPC: 0.871033 (Simulation time: 1 hr 36 min 9 sec) 
Heartbeat CPU 3 instructions: 230000000 cycles: 222145713 heartbeat IPC: 1.3681 cumulative IPC: 0.868662 (Simulation time: 1 hr 36 min 28 sec) 
Heartbeat CPU 0 instructions: 240000000 cycles: 228588982 heartbeat IPC: 1.36907 cumulative IPC: 0.889499 (Simulation time: 1 hr 40 min 2 sec) 
Heartbeat CPU 1 instructions: 240000000 cycles: 228791229 heartbeat IPC: 1.35903 cumulative IPC: 0.888431 (Simulation time: 1 hr 40 min 9 sec) 
Heartbeat CPU 2 instructions: 240000000 cycles: 228903751 heartbeat IPC: 1.36567 cumulative IPC: 0.887965 (Simulation time: 1 hr 40 min 12 sec) 
Heartbeat CPU 3 instructions: 240000000 cycles: 229499458 heartbeat IPC: 1.35985 cumulative IPC: 0.8855 (Simulation time: 1 hr 40 min 32 sec) 
Heartbeat CPU 0 instructions: 250000001 cycles: 235711357 heartbeat IPC: 1.40403 cumulative IPC: 0.906102 (Simulation time: 1 hr 43 min 46 sec) 
Finished CPU 0 instructions: 200000003 cycles: 220725741 cumulative IPC: 0.906102 (Simulation time: 1 hr 43 min 46 sec) 
Heartbeat CPU 1 instructions: 250000001 cycles: 235915936 heartbeat IPC: 1.40357 cumulative IPC: 0.905043 (Simulation time: 1 hr 43 min 53 sec) 
Finished CPU 1 instructions: 200000003 cycles: 220954500 cumulative IPC: 0.905164 (Simulation time: 1 hr 43 min 54 sec) 
Heartbeat CPU 2 instructions: 250000001 cycles: 236032196 heartbeat IPC: 1.40283 cumulative IPC: 0.904569 (Simulation time: 1 hr 43 min 57 sec) 
Finished CPU 2 instructions: 200000003 cycles: 221070665 cumulative IPC: 0.904688 (Simulation time: 1 hr 43 min 58 sec) 
Heartbeat CPU 3 instructions: 250000001 cycles: 236650219 heartbeat IPC: 1.39845 cumulative IPC: 0.902048 (Simulation time: 1 hr 44 min 19 sec) 
Finished CPU 3 instructions: 200000001 cycles: 221689078 cumulative IPC: 0.902164 (Simulation time: 1 hr 44 min 20 sec) 

ChampSim completed all CPUs

Total Simulation Statistics (not including warmup)

CPU 0 cumulative IPC: 0.90814 instructions: 201324618 cycles: 221689077
ITLB TOTAL     ACCESS:   31977066  HIT:   31977044  MISS:         22  HIT %:    99.9999  MISS %: 6.87993e-05   MPKI: 0.000109276
ITLB LOAD      ACCESS:          0  HIT:          0  MISS:          0  HIT %:       -nan  MISS %:       -nan   MPKI: 0
ITLB RFO       ACCESS:          0  HIT:          0  MISS:          0  HIT %:       -nan  MISS %:       -nan   MPKI: 0
ITLB PREFETCH  ACCESS:          0  HIT:          0  MISS:          0  HIT %:       -nan  MISS %:       -nan   MPKI: 0
ITLB WRITEBACK ACCESS:          0  HIT:          0  MISS:          0  HIT %:       -nan  MISS %:       -nan   MPKI: 0
DTLB TOTAL     ACCESS:   52023877  HIT:   51956392  MISS:      67485  HIT %:    99.8703  MISS %:   0.129719   MPKI: 0.335205
DTLB LOAD      ACCESS:          0  HIT:          0  MISS:          0  HIT %:       -nan  MISS %:       -nan   MPKI: 0
DTLB RFO       ACCESS:          0  HIT:          0  MISS:          0  HIT %:       -nan  MISS %:       -nan   MPKI: 0
DTLB PREFETCH  ACCESS:          0  HIT:          0  MISS:          0  HIT %:       -nan  MISS %:       -nan   MPKI: 0
DTLB WRITEBACK ACCESS:          0  HIT:          0  MISS:          0  HIT %:       -nan  MISS %:       -nan   MPKI: 0
STLB TOTAL     ACCESS:   16667219  HIT:   16635316  MISS:      31903  HIT %:    99.8086  MISS %:   0.191412   MPKI: 0.158465
STLB LOAD      ACCESS:          0  HIT:          0  MISS:          0  HIT %:       -nan  MISS %:       -nan   MPKI: 0
STLB RFO       ACCESS:          0  HIT:          0  MISS:          0  HIT %:       -nan  MISS %:       -nan   MPKI: 0
STLB PREFETCH  ACCESS:          0  HIT:          0  MISS:          0  HIT %:       -nan  MISS %:       -nan   MPKI: 0
STLB WRITEBACK ACCESS:          0  HIT:          0  MISS:          0  HIT %:       -nan  MISS %:       -nan   MPKI: 0
L1D TOTAL     ACCESS:  109681187  HIT:  107539540  MISS:    2141647  HIT %:    98.0474  MISS %:    1.95261   MPKI: 10.6378
L1D LOAD      ACCESS:   45601245  HIT:   45198100  MISS:     403145  HIT %:    99.1159  MISS %:   0.884066   MPKI: 2.00246
L1D RFO       ACCESS:    8303907  HIT:    7805731  MISS:     498176  HIT %:    94.0007  MISS %:     5.9993   MPKI: 2.47449
L1D PREFETCH  ACCESS:   55776035  HIT:   54535709  MISS:    1240326  HIT %:    97.7762  MISS %:    2.22376   MPKI: 6.16083
L1D WRITEBACK ACCESS:          0  HIT:          0  MISS:          0  HIT %:       -nan  MISS %:       -nan   MPKI: 0
L1I TOTAL     ACCESS:   38624098  HIT:   38623348  MISS:        750  HIT %:    99.9981  MISS %: 0.00194179   MPKI: 0.00372533
L1I LOAD      ACCESS:   38624098  HIT:   38623348  MISS:        750  HIT %:    99.9981  MISS %: 0.00194179   MPKI: 0.00372533
L1I RFO       ACCESS:          0  HIT:          0  MISS:          0  HIT %:       -nan  MISS %:       -nan   MPKI: 0
L1I PREFETCH  ACCESS:          0  HIT:          0  MISS:          0  HIT %:       -nan  MISS %:       -nan   MPKI: 0
L1I WRITEBACK ACCESS:          0  HIT:          0  MISS:          0  HIT %:       -nan  MISS %:       -nan   MPKI: 0
L2C TOTAL     ACCESS:    7695971  HIT:    5792964  MISS:    1903007  HIT %:    75.2727  MISS %:    24.7273   MPKI: 9.45243
L2C LOAD      ACCESS:     342658  HIT:     215581  MISS:     127077  HIT %:    62.9143  MISS %:    37.0857   MPKI: 0.631204
L2C RFO       ACCESS:     498171  HIT:      75534  MISS:     422637  HIT %:    15.1623  MISS %:    84.8377   MPKI: 2.09928
L2C PREFETCH  ACCESS:    5595084  HIT:    4307192  MISS:    1287892  HIT %:    76.9817  MISS %:    23.0183   MPKI: 6.39709
L2C WRITEBACK ACCESS:     928234  HIT:     867508  MISS:      60726  HIT %:    93.4579  MISS %:     6.5421   MPKI: 0.301632
PSCL5 TOTAL     ACCESS:     331700  HIT:     331700  MISS:          0  HIT %:        100  MISS %:          0   MPKI: 0
PSCL5 LOAD      ACCESS:          0  HIT:          0  MISS:          0  HIT %:       -nan  MISS %:       -nan   MPKI: 0
PSCL5 RFO       ACCESS:          0  HIT:          0  MISS:          0  HIT %:       -nan  MISS %:       -nan   MPKI: 0
PSCL5 PREFETCH  ACCESS:          0  HIT:          0  MISS:          0  HIT %:       -nan  MISS %:       -nan   MPKI: 0
PSCL5 WRITEBACK ACCESS:          0  HIT:          0  MISS:          0  HIT %:       -nan  MISS %:       -nan   MPKI: 0
PSCL4 TOTAL     ACCESS:     331700  HIT:     331700  MISS:          0  HIT %:        100  MISS %:          0   MPKI: 0
PSCL4 LOAD      ACCESS:          0  HIT:          0  MISS:          0  HIT %:       -nan  MISS %:       -nan   MPKI: 0
PSCL4 RFO       ACCESS:          0  HIT:          0  MISS:          0  HIT %:       -nan  MISS %:       -nan   MPKI: 0
PSCL4 PREFETCH  ACCESS:          0  HIT:          0  MISS:          0  HIT %:       -nan  MISS %:       -nan   MPKI: 0
PSCL4 WRITEBACK ACCESS:          0  HIT:          0  MISS:          0  HIT %:       -nan  MISS %:       -nan   MPKI: 0
PSCL3 TOTAL     ACCESS:     331700  HIT:     331700  MISS:          0  HIT %:        100  MISS %:          0   MPKI: 0
PSCL3 LOAD      ACCESS:          0  HIT:          0  MISS:          0  HIT %:       -nan  MISS %:       -nan   MPKI: 0
PSCL3 RFO       ACCESS:          0  HIT:          0  MISS:          0  HIT %:       -nan  MISS %:       -nan   MPKI: 0
PSCL3 PREFETCH  ACCESS:          0  HIT:          0  MISS:          0  HIT %:       -nan  MISS %:       -nan   MPKI: 0
PSCL3 WRITEBACK ACCESS:          0  HIT:          0  MISS:          0  HIT %:       -nan  MISS %:       -nan   MPKI: 0
PSCL2 TOTAL     ACCESS:     331462  HIT:     331352  MISS:        110  HIT %:    99.9668  MISS %:  0.0331863   MPKI: 0.000546381
PSCL2 LOAD      ACCESS:          0  HIT:          0  MISS:          0  HIT %:       -nan  MISS %:       -nan   MPKI: 0
PSCL2 RFO       ACCESS:          0  HIT:          0  MISS:          0  HIT %:       -nan  MISS %:       -nan   MPKI: 0
PSCL2 PREFETCH  ACCESS:          0  HIT:          0  MISS:          0  HIT %:       -nan  MISS %:       -nan   MPKI: 0
PSCL2 WRITEBACK ACCESS:          0  HIT:          0  MISS:          0  HIT %:       -nan  MISS %:       -nan   MPKI: 0
LLC TOTAL     ACCESS:    2619299  HIT:     797964  MISS:    1821335  HIT %:    30.4648  MISS %:    69.5352   MPKI: 9.04676
LLC LOAD      ACCESS:      51982  HIT:       5273  MISS:      46709  HIT %:    10.1439  MISS %:    89.8561   MPKI: 0.232008
LLC RFO       ACCESS:     422632  HIT:       7254  MISS:     415378  HIT %:    1.71639  MISS %:    98.2836   MPKI: 2.06323
LLC PREFETCH  ACCESS:    1362991  HIT:      32496  MISS:    1330495  HIT %:    2.38417  MISS %:    97.6158   MPKI: 6.6087
LLC WRITEBACK ACCESS:     777019  HIT:     752497  MISS:      24522  HIT %:    96.8441  MISS %:    3.15591   MPKI: 0.121803

RAW hits: 270660
Loads Generated: 67664910
Loads sent to L1D: 67394245
Stores Generated: 13493540
Stores sent to L1D: 13493543

CPU 1 cumulative IPC: 0.906836 instructions: 201035568 cycles: 221689078
ITLB TOTAL     ACCESS:   31932281  HIT:   31932259  MISS:         22  HIT %:    99.9999  MISS %: 6.88958e-05   MPKI: 0.000109433
ITLB LOAD      ACCESS:          0  HIT:          0  MISS:          0  HIT %:       -nan  MISS %:       -nan   MPKI: 0
ITLB RFO       ACCESS:          0  HIT:          0  MISS:          0  HIT %:       -nan  MISS %:       -nan   MPKI: 0
ITLB PREFETCH  ACCESS:          0  HIT:          0  MISS:          0  HIT %:       -nan  MISS %:       -nan   MPKI: 0
ITLB WRITEBACK ACCESS:          0  HIT:          0  MISS:          0  HIT %:       -nan  MISS %:       -nan   MPKI: 0
DTLB TOTAL     ACCESS:   51950001  HIT:   51882608  MISS:      67393  HIT %:    99.8703  MISS %:   0.129727   MPKI: 0.335229
DTLB LOAD      ACCESS:          0  HIT:          0  MISS:          0  HIT %:       -nan  MISS %:       -nan   MPKI: 0
DTLB RFO       ACCESS:          0  HIT:          0  MISS:          0  HIT %:       -nan  MISS %:       -nan   MPKI: 0
DTLB PREFETCH  ACCESS:          0  HIT:          0  MISS:          0  HIT %:       -nan  MISS %:       -nan   MPKI: 0
DTLB WRITEBACK ACCESS:          0  HIT:          0  MISS:          0  HIT %:       -nan  MISS %:       -nan   MPKI: 0
STLB TOTAL     ACCESS:   16661024  HIT:   16629150  MISS:      31874  HIT %:    99.8087  MISS %:   0.191309   MPKI: 0.158549
STLB LOAD      ACCESS:          0  HIT:          0  MISS:          0  HIT %:       -nan  MISS %:       -nan   MPKI: 0
STLB RFO       ACCESS:          0  HIT:          0  MISS:          0  HIT %:       -nan  MISS %:       -nan   MPKI: 0
STLB PREFETCH  ACCESS:          0  HIT:          0  MISS:          0  HIT %:       -nan  MISS %:       -nan   MPKI: 0
STLB WRITEBACK ACCESS:          0  HIT:          0  MISS:          0  HIT %:       -nan  MISS %:       -nan   MPKI: 0
L1D TOTAL     ACCESS:  109438142  HIT:  107301454  MISS:    2136688  HIT %:    98.0476  MISS %:    1.95242   MPKI: 10.6284
L1D LOAD      ACCESS:   45531552  HIT:   45129041  MISS:     402511  HIT %:     99.116  MISS %:   0.884027   MPKI: 2.00219
L1D RFO       ACCESS:    8295911  HIT:    7797880  MISS:     498031  HIT %:    93.9967  MISS %:    6.00333   MPKI: 2.47733
L1D PREFETCH  ACCESS:   55610679  HIT:   54374533  MISS:    1236146  HIT %:    97.7771  MISS %:    2.22286   MPKI: 6.14889
L1D WRITEBACK ACCESS:          0  HIT:          0  MISS:          0  HIT %:       -nan  MISS %:       -nan   MPKI: 0
L1I TOTAL     ACCESS:   38569339  HIT:   38568589  MISS:        750  HIT %:    99.9981  MISS %: 0.00194455   MPKI: 0.00373068
L1I LOAD      ACCESS:   38569339  HIT:   38568589  MISS:        750  HIT %:    99.9981  MISS %: 0.00194455   MPKI: 0.00373068
L1I RFO       ACCESS:          0  HIT:          0  MISS:          0  HIT %:       -nan  MISS %:       -nan   MPKI: 0
L1I PREFETCH  ACCESS:          0  HIT:          0  MISS:          0  HIT %:       -nan  MISS %:       -nan   MPKI: 0
L1I WRITEBACK ACCESS:          0  HIT:          0  MISS:          0  HIT %:       -nan  MISS %:       -nan   MPKI: 0
L2C TOTAL     ACCESS:    7625263  HIT:    5728356  MISS:    1896907  HIT %:    75.1234  MISS %:    24.8766   MPKI: 9.43568
L2C LOAD      ACCESS:     341043  HIT:     214724  MISS:     126319  HIT %:     62.961  MISS %:     37.039   MPKI: 0.628342
L2C RFO       ACCESS:     498027  HIT:      77694  MISS:     420333  HIT %:    15.6004  MISS %:    84.3996   MPKI: 2.09084
L2C PREFETCH  ACCESS:    5524785  HIT:    4240150  MISS:    1284635  HIT %:    76.7478  MISS %:    23.2522   MPKI: 6.39009
L2C WRITEBACK ACCESS:     927020  HIT:     866058  MISS:      60962  HIT %:    93.4239  MISS %:    6.57613   MPKI: 0.30324
PSCL5 TOTAL     ACCESS:     334299  HIT:     334299  MISS:          0  HIT %:        100  MISS %:          0   MPKI: 0
PSCL5 LOAD      ACCESS:          0  HIT:          0  MISS:          0  HIT %:       -nan  MISS %:       -nan   MPKI: 0
PSCL5 RFO       ACCESS:          0  HIT:          0  MISS:          0  HIT %:       -nan  MISS %:       -nan   MPKI: 0
PSCL5 PREFETCH  ACCESS:          0  HIT:          0  MISS:          0  HIT %:       -nan  MISS %:       -nan   MPKI: 0
PSCL5 WRITEBACK ACCESS:          0  HIT:          0  MISS:          0  HIT %:       -nan  MISS %:       -nan   MPKI: 0
PSCL4 TOTAL     ACCESS:     334299  HIT:     334299  MISS:          0  HIT %:        100  MISS %:          0   MPKI: 0
PSCL4 LOAD      ACCESS:          0  HIT:          0  MISS:          0  HIT %:       -nan  MISS %:       -nan   MPKI: 0
PSCL4 RFO       ACCESS:          0  HIT:          0  MISS:          0  HIT %:       -nan  MISS %:       -nan   MPKI: 0
PSCL4 PREFETCH  ACCESS:          0  HIT:          0  MISS:          0  HIT %:       -nan  MISS %:       -nan   MPKI: 0
PSCL4 WRITEBACK ACCESS:          0  HIT:          0  MISS:          0  HIT %:       -nan  MISS %:       -nan   MPKI: 0
PSCL3 TOTAL     ACCESS:     334299  HIT:     334299  MISS:          0  HIT %:        100  MISS %:          0   MPKI: 0
PSCL3 LOAD      ACCESS:          0  HIT:          0  MISS:          0  HIT %:       -nan  MISS %:       -nan   MPKI: 0
PSCL3 RFO       ACCESS:          0  HIT:          0  MISS:          0  HIT %:       -nan  MISS %:       -nan   MPKI: 0
PSCL3 PREFETCH  ACCESS:          0  HIT:          0  MISS:          0  HIT %:       -nan  MISS %:       -nan   MPKI: 0
PSCL3 WRITEBACK ACCESS:          0  HIT:          0  MISS:          0  HIT %:       -nan  MISS %:       -nan   MPKI: 0
PSCL2 TOTAL     ACCESS:     334070  HIT:     333960  MISS:        110  HIT %:    99.9671  MISS %:  0.0329272   MPKI: 0.000547167
PSCL2 LOAD      ACCESS:          0  HIT:          0  MISS:          0  HIT %:       -nan  MISS %:       -nan   MPKI: 0
PSCL2 RFO       ACCESS:          0  HIT:          0  MISS:          0  HIT %:       -nan  MISS %:       -nan   MPKI: 0
PSCL2 PREFETCH  ACCESS:          0  HIT:          0  MISS:          0  HIT %:       -nan  MISS %:       -nan   MPKI: 0
PSCL2 WRITEBACK ACCESS:          0  HIT:          0  MISS:          0  HIT %:       -nan  MISS %:       -nan   MPKI: 0
LLC TOTAL     ACCESS:    2609277  HIT:     789463  MISS:    1819814  HIT %:     30.256  MISS %:     69.744   MPKI: 9.0522
LLC LOAD      ACCESS:      52257  HIT:       5200  MISS:      47057  HIT %:    9.95082  MISS %:    90.0492   MPKI: 0.234073
LLC RFO       ACCESS:     420332  HIT:       4881  MISS:     415451  HIT %:    1.16122  MISS %:    98.8388   MPKI: 2.06655
LLC PREFETCH  ACCESS:    1358698  HIT:      30504  MISS:    1328194  HIT %:    2.24509  MISS %:    97.7549   MPKI: 6.60676
LLC WRITEBACK ACCESS:     773332  HIT:     748443  MISS:      24889  HIT %:    96.7816  MISS %:    3.21841   MPKI: 0.123804

RAW hits: 268528
Loads Generated: 67574945
Loads sent to L1D: 67306404
Stores Generated: 13476641
Stores sent to L1D: 13476642

CPU 2 cumulative IPC: 0.905947 instructions: 200838540 cycles: 221689078
ITLB TOTAL     ACCESS:   31905302  HIT:   31905280  MISS:         22  HIT %:    99.9999  MISS %: 6.89541e-05   MPKI: 0.000109541
ITLB LOAD      ACCESS:          0  HIT:          0  MISS:          0  HIT %:       -nan  MISS %:       -nan   MPKI: 0
ITLB RFO       ACCESS:          0  HIT:          0  MISS:          0  HIT %:       -nan  MISS %:       -nan   MPKI: 0
ITLB PREFETCH  ACCESS:          0  HIT:          0  MISS:          0  HIT %:       -nan  MISS %:       -nan   MPKI: 0
ITLB WRITEBACK ACCESS:          0  HIT:          0  MISS:          0  HIT %:       -nan  MISS %:       -nan   MPKI: 0
DTLB TOTAL     ACCESS:   51909127  HIT:   51841740  MISS:      67387  HIT %:    99.8702  MISS %:   0.129817   MPKI: 0.335528
DTLB LOAD      ACCESS:          0  HIT:          0  MISS:          0  HIT %:       -nan  MISS %:       -nan   MPKI: 0
DTLB RFO       ACCESS:          0  HIT:          0  MISS:          0  HIT %:       -nan  MISS %:       -nan   MPKI: 0
DTLB PREFETCH  ACCESS:          0  HIT:          0  MISS:          0  HIT %:       -nan  MISS %:       -nan   MPKI: 0
DTLB WRITEBACK ACCESS:          0  HIT:          0  MISS:          0  HIT %:       -nan  MISS %:       -nan   MPKI: 0
STLB TOTAL     ACCESS:   16761351  HIT:   16729495  MISS:      31856  HIT %:    99.8099  MISS %:   0.190056   MPKI: 0.158615
STLB LOAD      ACCESS:          0  HIT:          0  MISS:          0  HIT %:       -nan  MISS %:       -nan   MPKI: 0
STLB RFO       ACCESS:          0  HIT:          0  MISS:          0  HIT %:       -nan  MISS %:       -nan   MPKI: 0
STLB PREFETCH  ACCESS:          0  HIT:          0  MISS:          0  HIT %:       -nan  MISS %:       -nan   MPKI: 0
STLB WRITEBACK ACCESS:          0  HIT:          0  MISS:          0  HIT %:       -nan  MISS %:       -nan   MPKI: 0
L1D TOTAL     ACCESS:  109548880  HIT:  107414544  MISS:    2134336  HIT %:    98.0517  MISS %:     1.9483   MPKI: 10.6271
L1D LOAD      ACCESS:   45495595  HIT:   45092837  MISS:     402758  HIT %:    99.1147  MISS %:   0.885268   MPKI: 2.00538
L1D RFO       ACCESS:    8287566  HIT:    7789989  MISS:     497577  HIT %:    93.9961  MISS %:     6.0039   MPKI: 2.4775
L1D PREFETCH  ACCESS:   55765719  HIT:   54531718  MISS:    1234001  HIT %:    97.7872  MISS %:    2.21283   MPKI: 6.14424
L1D WRITEBACK ACCESS:          0  HIT:          0  MISS:          0  HIT %:       -nan  MISS %:       -nan   MPKI: 0
L1I TOTAL     ACCESS:   38534764  HIT:   38534014  MISS:        750  HIT %:    99.9981  MISS %: 0.00194629   MPKI: 0.00373434
L1I LOAD      ACCESS:   38534764  HIT:   38534014  MISS:        750  HIT %:    99.9981  MISS %: 0.00194629   MPKI: 0.00373434
L1I RFO       ACCESS:          0  HIT:          0  MISS:          0  HIT %:       -nan  MISS %:       -nan   MPKI: 0
L1I PREFETCH  ACCESS:          0  HIT:          0  MISS:          0  HIT %:       -nan  MISS %:       -nan   MPKI: 0
L1I WRITEBACK ACCESS:          0  HIT:          0  MISS:          0  HIT %:       -nan  MISS %:       -nan   MPKI: 0
L2C TOTAL     ACCESS:    7705026  HIT:    5806198  MISS:    1898828  HIT %:     75.356  MISS %:     24.644   MPKI: 9.4545
L2C LOAD      ACCESS:     341951  HIT:     215075  MISS:     126876  HIT %:    62.8964  MISS %:    37.1036   MPKI: 0.631731
L2C RFO       ACCESS:     497570  HIT:      75403  MISS:     422167  HIT %:    15.1542  MISS %:    84.8458   MPKI: 2.10202
L2C PREFETCH  ACCESS:    5602868  HIT:    4318804  MISS:    1284064  HIT %:     77.082  MISS %:     22.918   MPKI: 6.39351
L2C WRITEBACK ACCESS:     926559  HIT:     865477  MISS:      61082  HIT %:    93.4077  MISS %:    6.59235   MPKI: 0.304135
PSCL5 TOTAL     ACCESS:     335956  HIT:     335956  MISS:          0  HIT %:        100  MISS %:          0   MPKI: 0
PSCL5 LOAD      ACCESS:          0  HIT:          0  MISS:          0  HIT %:       -nan  MISS %:       -nan   MPKI: 0
PSCL5 RFO       ACCESS:          0  HIT:          0  MISS:          0  HIT %:       -nan  MISS %:       -nan   MPKI: 0
PSCL5 PREFETCH  ACCESS:          0  HIT:          0  MISS:          0  HIT %:       -nan  MISS %:       -nan   MPKI: 0
PSCL5 WRITEBACK ACCESS:          0  HIT:          0  MISS:          0  HIT %:       -nan  MISS %:       -nan   MPKI: 0
PSCL4 TOTAL     ACCESS:     335956  HIT:     335956  MISS:          0  HIT %:        100  MISS %:          0   MPKI: 0
PSCL4 LOAD      ACCESS:          0  HIT:          0  MISS:          0  HIT %:       -nan  MISS %:       -nan   MPKI: 0
PSCL4 RFO       ACCESS:          0  HIT:          0  MISS:          0  HIT %:       -nan  MISS %:       -nan   MPKI: 0
PSCL4 PREFETCH  ACCESS:          0  HIT:          0  MISS:          0  HIT %:       -nan  MISS %:       -nan   MPKI: 0
PSCL4 WRITEBACK ACCESS:          0  HIT:          0  MISS:          0  HIT %:       -nan  MISS %:       -nan   MPKI: 0
PSCL3 TOTAL     ACCESS:     335956  HIT:     335956  MISS:          0  HIT %:        100  MISS %:          0   MPKI: 0
PSCL3 LOAD      ACCESS:          0  HIT:          0  MISS:          0  HIT %:       -nan  MISS %:       -nan   MPKI: 0
PSCL3 RFO       ACCESS:          0  HIT:          0  MISS:          0  HIT %:       -nan  MISS %:       -nan   MPKI: 0
PSCL3 PREFETCH  ACCESS:          0  HIT:          0  MISS:          0  HIT %:       -nan  MISS %:       -nan   MPKI: 0
PSCL3 WRITEBACK ACCESS:          0  HIT:          0  MISS:          0  HIT %:       -nan  MISS %:       -nan   MPKI: 0
PSCL2 TOTAL     ACCESS:     335724  HIT:     335614  MISS:        110  HIT %:    99.9672  MISS %:   0.032765   MPKI: 0.000547704
PSCL2 LOAD      ACCESS:          0  HIT:          0  MISS:          0  HIT %:       -nan  MISS %:       -nan   MPKI: 0
PSCL2 RFO       ACCESS:          0  HIT:          0  MISS:          0  HIT %:       -nan  MISS %:       -nan   MPKI: 0
PSCL2 PREFETCH  ACCESS:          0  HIT:          0  MISS:          0  HIT %:       -nan  MISS %:       -nan   MPKI: 0
PSCL2 WRITEBACK ACCESS:          0  HIT:          0  MISS:          0  HIT %:       -nan  MISS %:       -nan   MPKI: 0
LLC TOTAL     ACCESS:    2613104  HIT:     794784  MISS:    1818320  HIT %:    30.4153  MISS %:    69.5847   MPKI: 9.05364
LLC LOAD      ACCESS:      52362  HIT:       5143  MISS:      47219  HIT %:    9.82201  MISS %:     90.178   MPKI: 0.235109
LLC RFO       ACCESS:     422164  HIT:       6772  MISS:     415392  HIT %:    1.60412  MISS %:    98.3959   MPKI: 2.06829
LLC PREFETCH  ACCESS:    1358581  HIT:      31566  MISS:    1327015  HIT %:    2.32345  MISS %:    97.6765   MPKI: 6.60737
LLC WRITEBACK ACCESS:     775358  HIT:     750890  MISS:      24468  HIT %:    96.8443  MISS %:     3.1557   MPKI: 0.121829

RAW hits: 264827
Loads Generated: 67508662
Loads sent to L1D: 67243828
Stores Generated: 13466000
Stores sent to L1D: 13465998

CPU 3 cumulative IPC: 0.902164 instructions: 200000001 cycles: 221689078
ITLB TOTAL     ACCESS:   31781241  HIT:   31781219  MISS:         22  HIT %:    99.9999  MISS %: 6.92232e-05   MPKI: 0.00011
ITLB LOAD      ACCESS:          0  HIT:          0  MISS:          0  HIT %:       -nan  MISS %:       -nan   MPKI: 0
ITLB RFO       ACCESS:          0  HIT:          0  MISS:          0  HIT %:       -nan  MISS %:       -nan   MPKI: 0
ITLB PREFETCH  ACCESS:          0  HIT:          0  MISS:          0  HIT %:       -nan  MISS %:       -nan   MPKI: 0
ITLB WRITEBACK ACCESS:          0  HIT:          0  MISS:          0  HIT %:       -nan  MISS %:       -nan   MPKI: 0
DTLB TOTAL     ACCESS:   51688136  HIT:   51620957  MISS:      67179  HIT %:      99.87  MISS %:    0.12997   MPKI: 0.335895
DTLB LOAD      ACCESS:          0  HIT:          0  MISS:          0  HIT %:       -nan  MISS %:       -nan   MPKI: 0
DTLB RFO       ACCESS:          0  HIT:          0  MISS:          0  HIT %:       -nan  MISS %:       -nan   MPKI: 0
DTLB PREFETCH  ACCESS:          0  HIT:          0  MISS:          0  HIT %:       -nan  MISS %:       -nan   MPKI: 0
DTLB WRITEBACK ACCESS:          0  HIT:          0  MISS:          0  HIT %:       -nan  MISS %:       -nan   MPKI: 0
STLB TOTAL     ACCESS:   16552573  HIT:   16520798  MISS:      31775  HIT %:     99.808  MISS %:   0.191964   MPKI: 0.158875
STLB LOAD      ACCESS:          0  HIT:          0  MISS:          0  HIT %:       -nan  MISS %:       -nan   MPKI: 0
STLB RFO       ACCESS:          0  HIT:          0  MISS:          0  HIT %:       -nan  MISS %:       -nan   MPKI: 0
STLB PREFETCH  ACCESS:          0  HIT:          0  MISS:          0  HIT %:       -nan  MISS %:       -nan   MPKI: 0
STLB WRITEBACK ACCESS:          0  HIT:          0  MISS:          0  HIT %:       -nan  MISS %:       -nan   MPKI: 0
L1D TOTAL     ACCESS:  108564244  HIT:  106443529  MISS:    2120715  HIT %:    98.0466  MISS %:    1.95342   MPKI: 10.6036
L1D LOAD      ACCESS:   45294164  HIT:   44886157  MISS:     408007  HIT %:    99.0992  MISS %:   0.900794   MPKI: 2.04003
L1D RFO       ACCESS:    8235316  HIT:    7738698  MISS:     496618  HIT %:    93.9697  MISS %:    6.03035   MPKI: 2.48309
L1D PREFETCH  ACCESS:   55034764  HIT:   53818674  MISS:    1216090  HIT %:    97.7903  MISS %:    2.20968   MPKI: 6.08045
L1D WRITEBACK ACCESS:          0  HIT:          0  MISS:          0  HIT %:       -nan  MISS %:       -nan   MPKI: 0
L1I TOTAL     ACCESS:   38378035  HIT:   38377285  MISS:        750  HIT %:     99.998  MISS %: 0.00195424   MPKI: 0.00375
L1I LOAD      ACCESS:   38378035  HIT:   38377285  MISS:        750  HIT %:     99.998  MISS %: 0.00195424   MPKI: 0.00375
L1I RFO       ACCESS:          0  HIT:          0  MISS:          0  HIT %:       -nan  MISS %:       -nan   MPKI: 0
L1I PREFETCH  ACCESS:          0  HIT:          0  MISS:          0  HIT %:       -nan  MISS %:       -nan   MPKI: 0
L1I WRITEBACK ACCESS:          0  HIT:          0  MISS:          0  HIT %:       -nan  MISS %:       -nan   MPKI: 0
L2C TOTAL     ACCESS:    7572685  HIT:    5683666  MISS:    1889019  HIT %:    75.0548  MISS %:    24.9452   MPKI: 9.44509
L2C LOAD      ACCESS:     348322  HIT:     219887  MISS:     128435  HIT %:    63.1275  MISS %:    36.8725   MPKI: 0.642175
L2C RFO       ACCESS:     496613  HIT:      74968  MISS:     421645  HIT %:    15.0959  MISS %:    84.9041   MPKI: 2.10822
L2C PREFETCH  ACCESS:    5475495  HIT:    4200844  MISS:    1274651  HIT %:    76.7208  MISS %:    23.2792   MPKI: 6.37325
L2C WRITEBACK ACCESS:     923789  HIT:     864180  MISS:      59609  HIT %:    93.5473  MISS %:    6.45266   MPKI: 0.298045
PSCL5 TOTAL     ACCESS:     328344  HIT:     328344  MISS:          0  HIT %:        100  MISS %:          0   MPKI: 0
PSCL5 LOAD      ACCESS:          0  HIT:          0  MISS:          0  HIT %:       -nan  MISS %:       -nan   MPKI: 0
PSCL5 RFO       ACCESS:          0  HIT:          0  MISS:          0  HIT %:       -nan  MISS %:       -nan   MPKI: 0
PSCL5 PREFETCH  ACCESS:          0  HIT:          0  MISS:          0  HIT %:       -nan  MISS %:       -nan   MPKI: 0
PSCL5 WRITEBACK ACCESS:          0  HIT:          0  MISS:          0  HIT %:       -nan  MISS %:       -nan   MPKI: 0
PSCL4 TOTAL     ACCESS:     328344  HIT:     328344  MISS:          0  HIT %:        100  MISS %:          0   MPKI: 0
PSCL4 LOAD      ACCESS:          0  HIT:          0  MISS:          0  HIT %:       -nan  MISS %:       -nan   MPKI: 0
PSCL4 RFO       ACCESS:          0  HIT:          0  MISS:          0  HIT %:       -nan  MISS %:       -nan   MPKI: 0
PSCL4 PREFETCH  ACCESS:          0  HIT:          0  MISS:          0  HIT %:       -nan  MISS %:       -nan   MPKI: 0
PSCL4 WRITEBACK ACCESS:          0  HIT:          0  MISS:          0  HIT %:       -nan  MISS %:       -nan   MPKI: 0
PSCL3 TOTAL     ACCESS:     328344  HIT:     328344  MISS:          0  HIT %:        100  MISS %:          0   MPKI: 0
PSCL3 LOAD      ACCESS:          0  HIT:          0  MISS:          0  HIT %:       -nan  MISS %:       -nan   MPKI: 0
PSCL3 RFO       ACCESS:          0  HIT:          0  MISS:          0  HIT %:       -nan  MISS %:       -nan   MPKI: 0
PSCL3 PREFETCH  ACCESS:          0  HIT:          0  MISS:          0  HIT %:       -nan  MISS %:       -nan   MPKI: 0
PSCL3 WRITEBACK ACCESS:          0  HIT:          0  MISS:          0  HIT %:       -nan  MISS %:       -nan   MPKI: 0
PSCL2 TOTAL     ACCESS:     328171  HIT:     328061  MISS:        110  HIT %:    99.9665  MISS %:  0.0335191   MPKI: 0.00055
PSCL2 LOAD      ACCESS:          0  HIT:          0  MISS:          0  HIT %:       -nan  MISS %:       -nan   MPKI: 0
PSCL2 RFO       ACCESS:          0  HIT:          0  MISS:          0  HIT %:       -nan  MISS %:       -nan   MPKI: 0
PSCL2 PREFETCH  ACCESS:          0  HIT:          0  MISS:          0  HIT %:       -nan  MISS %:       -nan   MPKI: 0
PSCL2 WRITEBACK ACCESS:          0  HIT:          0  MISS:          0  HIT %:       -nan  MISS %:       -nan   MPKI: 0
LLC TOTAL     ACCESS:    2602930  HIT:     788407  MISS:    1814523  HIT %:    30.2892  MISS %:    69.7108   MPKI: 9.07261
LLC LOAD      ACCESS:      52020  HIT:       4671  MISS:      47349  HIT %:    8.97924  MISS %:    91.0208   MPKI: 0.236745
LLC RFO       ACCESS:     421642  HIT:       6231  MISS:     415411  HIT %:    1.47779  MISS %:    98.5222   MPKI: 2.07705
LLC PREFETCH  ACCESS:    1351068  HIT:      29952  MISS:    1321116  HIT %:    2.21691  MISS %:    97.7831   MPKI: 6.60558
LLC WRITEBACK ACCESS:     773521  HIT:     747096  MISS:      26425  HIT %:    96.5838  MISS %:     3.4162   MPKI: 0.132125

RAW hits: 257068
Loads Generated: 67248886
Loads sent to L1D: 66991814
Stores Generated: 13414774
Stores sent to L1D: 13414773

Region of Interest Statistics

CPU 0 cumulative IPC: 0.906102 instructions: 200000003 cycles: 220725741
ITLB TOTAL     ACCESS:   31782863  HIT:   31782841  MISS:         22  HIT %:    99.9999  MISS %: 6.92197e-05   MPKI: 0.00011
ITLB LOAD TRANSLATION ACCESS:   31782863  HIT:   31782841  MISS:         22  HIT %:    99.9999  MISS %: 6.92197e-05   MPKI: 0.00011
ITLB PREFETCH  REQUESTED:          0  ISSUED:          0  USEFUL:          0  USELESS:          0
ITLB USEFUL LOAD PREFETCHES:          0 PREFETCH ISSUED TO LOWER LEVEL:          0  ACCURACY: -nan
ITLB TIMELY PREFETCHES:          0 LATE PREFETCHES: 0 DROPPED PREFETCHES: 0
ITLB PREFETCHES SAME FILL-ORIGIN LEVEL: 0 DIFFERENT FILL-ORIGIN LEVEL: 0
ITLB AVERAGE MISS LATENCY: 795.182 cycles
ITLB RQ	ACCESS:   38624451	FORWARD:          0	MERGED:    6647378	TO_CACHE:   31977073

DTLB TOTAL     ACCESS:   51687694  HIT:   51620456  MISS:      67238  HIT %:    99.8699  MISS %:   0.130085   MPKI: 0.33619
DTLB LOAD TRANSLATION ACCESS:   51687694  HIT:   51620456  MISS:      67238  HIT %:    99.8699  MISS %:   0.130085   MPKI: 0.33619
DTLB PREFETCH  REQUESTED:          0  ISSUED:          0  USEFUL:          0  USELESS:          0
DTLB USEFUL LOAD PREFETCHES:          0 PREFETCH ISSUED TO LOWER LEVEL:          0  ACCURACY: -nan
DTLB TIMELY PREFETCHES:          0 LATE PREFETCHES: 0 DROPPED PREFETCHES: 0
DTLB PREFETCHES SAME FILL-ORIGIN LEVEL: 0 DIFFERENT FILL-ORIGIN LEVEL: 0
DTLB AVERAGE MISS LATENCY: 118.366 cycles
DTLB RQ	ACCESS:   59638019	FORWARD:          0	MERGED:    7557669	TO_CACHE:   52080350

STLB TOTAL     ACCESS:   16528904  HIT:   16497129  MISS:      31775  HIT %:    99.8078  MISS %:   0.192239   MPKI: 0.158875
STLB LOAD TRANSLATION ACCESS:      67260  HIT:      45765  MISS:      21495  HIT %:    68.0419  MISS %:    31.9581   MPKI: 0.107475
STLB TRANSLATION FROM L1D PREFETCHER ACCESS:   16461644  HIT:   16451364  MISS:      10280  HIT %:    99.9376  MISS %:  0.0624482   MPKI: 0.0514
STLB PREFETCH  REQUESTED:          0  ISSUED:          0  USEFUL:      10385  USELESS:          1
STLB USEFUL LOAD PREFETCHES:      10385 PREFETCH ISSUED TO LOWER LEVEL:          0  ACCURACY: inf
STLB TIMELY PREFETCHES:      10385 LATE PREFETCHES: 2832 DROPPED PREFETCHES: 297324
STLB PREFETCHES SAME FILL-ORIGIN LEVEL: 0 DIFFERENT FILL-ORIGIN LEVEL: 0
STLB AVERAGE MISS LATENCY: 276.898 cycles
STLB RQ	ACCESS:   70346867	FORWARD:          0	MERGED:   53344634	TO_CACHE:   17002233

STLB Hit, L1D data hit: 0
STLB Hit, L2C data hit: 0
STLB Hit, LLC data hit: 0
STLB Hit, LLC data miss: 0
STLB STLB hints to L2: 0
L1D TOTAL     ACCESS:  108865066  HIT:  106743284  MISS:    2121782  HIT %:     98.051  MISS %:      1.949   MPKI: 10.6089
L1D LOAD      ACCESS:   45307651  HIT:   44907889  MISS:     399762  HIT %:    99.1177  MISS %:   0.882328   MPKI: 1.99881
L1D RFO       ACCESS:    8226749  HIT:    7730069  MISS:     496680  HIT %:    93.9626  MISS %:    6.03738   MPKI: 2.4834
L1D PREFETCH  ACCESS:   55330666  HIT:   54105326  MISS:    1225340  HIT %:    97.7854  MISS %:    2.21458   MPKI: 6.1267
L1D PREFETCH  REQUESTED:  211010994  ISSUED:  159547640  USEFUL:    1202615  USELESS:      37682
L1D USEFUL LOAD PREFETCHES:    1202615 PREFETCH ISSUED TO LOWER LEVEL:   10755001  ACCURACY: 11.1819
L1D TIMELY PREFETCHES:    1202615 LATE PREFETCHES: 61229 DROPPED PREFETCHES: 883718
L1D PREFETCHES SAME FILL-ORIGIN LEVEL: 1324260 DIFFERENT FILL-ORIGIN LEVEL: 9430741
L1D AVERAGE MISS LATENCY: 477.325 cycles
L1D RQ	ACCESS:   67394245	FORWARD:          0	MERGED:   21247950	TO_CACHE:   46144849
L1D WQ	ACCESS:   13493202	FORWARD:       1465	MERGED:         32	TO_CACHE:   13493170
L1D PQ	ACCESS:   89268280	FORWARD:          0	MERGED:   18988901	TO_CACHE:   70279360

L1D UNIQUE REGIONS ACCESSED: 0
L1D REGIONS CONFLICTS: 0
L1D Cross Page Prefetch Requests: 5805383
L1D Same Page Prefetch Requests: 103826958
L1D ROI Sum of L1D PQ occupancy: 1094796125
L1D PREFETCHES PUSHED FROM L2C: 0
L1I TOTAL     ACCESS:   38376680  HIT:   38375930  MISS:        750  HIT %:     99.998  MISS %: 0.00195431   MPKI: 0.00375
L1I LOAD      ACCESS:   38376680  HIT:   38375930  MISS:        750  HIT %:     99.998  MISS %: 0.00195431   MPKI: 0.00375
L1I PREFETCH  REQUESTED:          0  ISSUED:          0  USEFUL:          0  USELESS:          0
L1I USEFUL LOAD PREFETCHES:          0 PREFETCH ISSUED TO LOWER LEVEL:          0  ACCURACY: -nan
L1I TIMELY PREFETCHES:          0 LATE PREFETCHES: 0 DROPPED PREFETCHES: 0
L1I PREFETCHES SAME FILL-ORIGIN LEVEL: 0 DIFFERENT FILL-ORIGIN LEVEL: 0
L1I AVERAGE MISS LATENCY: 1083.29 cycles
L1I RQ	ACCESS:   53089751	FORWARD:          0	MERGED:   14465300	TO_CACHE:   38624451

BTB TOTAL     ACCESS:   10838975  HIT:   10838628  MISS:        347  HIT %:    99.9968  MISS %: 0.00320141   MPKI: 0.001735
BTB BRANCH_DIRECT_JUMP	ACCESS:      63951  HIT:      63869  MISS:         82
BTB BRANCH_INDIRECT	ACCESS:          0  HIT:          0  MISS:          0
BTB BRANCH_CONDITIONAL	ACCESS:   10774948  HIT:   10774741  MISS:        207
BTB BRANCH_DIRECT_CALL	ACCESS:         38  HIT:          9  MISS:         29
BTB BRANCH_INDIRECT_CALL	ACCESS:          0  HIT:          0  MISS:          0
BTB BRANCH_RETURN	ACCESS:         38  HIT:          9  MISS:         29
BTB BRANCH_OTHER ACCESS:          0  HIT:          0  MISS:          0

L2C TOTAL     ACCESS:    7636140  HIT:    5743923  MISS:    1892217  HIT %:    75.2202  MISS %:    24.7798   MPKI: 9.46108
L2C LOAD      ACCESS:     339371  HIT:     213239  MISS:     126132  HIT %:    62.8336  MISS %:    37.1664   MPKI: 0.63066
L2C DATA LOAD MPKI: 0.62691
L2C INSTRUCTION LOAD MPKI: 0.00375
L2C RFO       ACCESS:     496675  HIT:      74316  MISS:     422359  HIT %:    14.9627  MISS %:    85.0373   MPKI: 2.11179
L2C PREFETCH  ACCESS:    5544964  HIT:    4266481  MISS:    1278483  HIT %:    76.9433  MISS %:    23.0567   MPKI: 6.39241
L2C DATA PREFETCH MPKI: 6.39241
L2C INSTRUCTION PREFETCH MPKI: 0
L2C WRITEBACK ACCESS:     923826  HIT:     863234  MISS:      60592  HIT %:    93.4412  MISS %:    6.55881   MPKI: 0.30296
L2C LOAD TRANSLATION ACCESS:      21182  HIT:      19568  MISS:       1614  HIT %:    92.3803  MISS %:    7.61968   MPKI: 0.00807
L2C TRANSLATION FROM L1D PREFETCHER ACCESS:     310122  HIT:     307085  MISS:       3037  HIT %:    99.0207  MISS %:   0.979292   MPKI: 0.015185
L2C PREFETCH  REQUESTED:          0  ISSUED:          0  USEFUL:     190920  USELESS:    1101676
L2C USEFUL LOAD PREFETCHES:     190920 PREFETCH ISSUED TO LOWER LEVEL:    1362996  ACCURACY: 14.0074
L2C TIMELY PREFETCHES:     190920 LATE PREFETCHES: 75099 DROPPED PREFETCHES: 0
L2C PREFETCHES SAME FILL-ORIGIN LEVEL: 797467 DIFFERENT FILL-ORIGIN LEVEL: 0
L2C AVERAGE MISS LATENCY: 902.644 cycles
L2C RQ	ACCESS:    1172661	FORWARD:          0	MERGED:          0	TO_CACHE:    1172653
L2C WQ	ACCESS:     928234	FORWARD:         22	MERGED:          0	TO_CACHE:     928234
L2C PQ	ACCESS:    9544767	FORWARD:          0	MERGED:      68221	TO_CACHE:    9476532

L2C Instructions Evicting Data 742
L2C Translations Evicting Data 4663
L2C Data Evicting Data 1831617
L2C Instructions Evicting Instructions 4
L2C Translations Evicting Instructions 4
L2C Data Evicting Instructions 720
L2C Instructions Evicting Translations 4
L2C Translations Evicting Translations 8
L2C Data Evicting Translations 4519
L2C Dense regions hint from L2: 0
PSCL5 TOTAL     ACCESS:     331180  HIT:     331180  MISS:          0  HIT %:        100  MISS %:          0   MPKI: 0
PSCL5 LOAD TRANSLATION ACCESS:      21137  HIT:      21137  MISS:          0  HIT %:        100  MISS %:          0   MPKI: 0
PSCL5 TRANSLATION FROM L1D PREFETCHER ACCESS:     310043  HIT:     310043  MISS:          0  HIT %:        100  MISS %:          0   MPKI: 0
PSCL5 PREFETCH  REQUESTED:          0  ISSUED:          0  USEFUL:          0  USELESS:          0
PSCL5 USEFUL LOAD PREFETCHES:          0 PREFETCH ISSUED TO LOWER LEVEL:          0  ACCURACY: -nan
PSCL5 TIMELY PREFETCHES:          0 LATE PREFETCHES: 0 DROPPED PREFETCHES: 0
PSCL5 PREFETCHES SAME FILL-ORIGIN LEVEL: 0 DIFFERENT FILL-ORIGIN LEVEL: 0

PSCL4 TOTAL     ACCESS:     331180  HIT:     331180  MISS:          0  HIT %:        100  MISS %:          0   MPKI: 0
PSCL4 LOAD TRANSLATION ACCESS:      21137  HIT:      21137  MISS:          0  HIT %:        100  MISS %:          0   MPKI: 0
PSCL4 TRANSLATION FROM L1D PREFETCHER ACCESS:     310043  HIT:     310043  MISS:          0  HIT %:        100  MISS %:          0   MPKI: 0
PSCL4 PREFETCH  REQUESTED:          0  ISSUED:          0  USEFUL:          0  USELESS:          0
PSCL4 USEFUL LOAD PREFETCHES:          0 PREFETCH ISSUED TO LOWER LEVEL:          0  ACCURACY: -nan
PSCL4 TIMELY PREFETCHES:          0 LATE PREFETCHES: 0 DROPPED PREFETCHES: 0
PSCL4 PREFETCHES SAME FILL-ORIGIN LEVEL: 0 DIFFERENT FILL-ORIGIN LEVEL: 0

PSCL3 TOTAL     ACCESS:     331180  HIT:     331180  MISS:          0  HIT %:        100  MISS %:          0   MPKI: 0
PSCL3 LOAD TRANSLATION ACCESS:      21137  HIT:      21137  MISS:          0  HIT %:        100  MISS %:          0   MPKI: 0
PSCL3 TRANSLATION FROM L1D PREFETCHER ACCESS:     310043  HIT:     310043  MISS:          0  HIT %:        100  MISS %:          0   MPKI: 0
PSCL3 PREFETCH  REQUESTED:          0  ISSUED:          0  USEFUL:          0  USELESS:          0
PSCL3 USEFUL LOAD PREFETCHES:          0 PREFETCH ISSUED TO LOWER LEVEL:          0  ACCURACY: -nan
PSCL3 TIMELY PREFETCHES:          0 LATE PREFETCHES: 0 DROPPED PREFETCHES: 0
PSCL3 PREFETCHES SAME FILL-ORIGIN LEVEL: 0 DIFFERENT FILL-ORIGIN LEVEL: 0

PSCL2 TOTAL     ACCESS:     330942  HIT:     330832  MISS:        110  HIT %:    99.9668  MISS %:  0.0332385   MPKI: 0.00055
PSCL2 LOAD TRANSLATION ACCESS:      21154  HIT:      21044  MISS:        110  HIT %:      99.48  MISS %:   0.519996   MPKI: 0.00055
PSCL2 TRANSLATION FROM L1D PREFETCHER ACCESS:     309788  HIT:     309788  MISS:          0  HIT %:        100  MISS %:          0   MPKI: 0
PSCL2 PREFETCH  REQUESTED:          0  ISSUED:          0  USEFUL:          0  USELESS:          0
PSCL2 USEFUL LOAD PREFETCHES:          0 PREFETCH ISSUED TO LOWER LEVEL:          0  ACCURACY: -nan
PSCL2 TIMELY PREFETCHES:          0 LATE PREFETCHES: 0 DROPPED PREFETCHES: 0
PSCL2 PREFETCHES SAME FILL-ORIGIN LEVEL: 0 DIFFERENT FILL-ORIGIN LEVEL: 0

LLC TOTAL     ACCESS:    2607423  HIT:     794377  MISS:    1813046  HIT %:     30.466  MISS %:     69.534   MPKI: 9.06523
LLC LOAD      ACCESS:      51349  HIT:       5050  MISS:      46299  HIT %:    9.83466  MISS %:    90.1653   MPKI: 0.231495
LLC RFO       ACCESS:     422354  HIT:       6976  MISS:     415378  HIT %:     1.6517  MISS %:    98.3483   MPKI: 2.07689
LLC PREFETCH  ACCESS:    1353270  HIT:      30541  MISS:    1322729  HIT %:    2.25683  MISS %:    97.7432   MPKI: 6.61364
LLC WRITEBACK ACCESS:     775799  HIT:     751373  MISS:      24426  HIT %:    96.8515  MISS %:     3.1485   MPKI: 0.12213
LLC LOAD TRANSLATION ACCESS:       1614  HIT:        115  MISS:       1499  HIT %:    7.12515  MISS %:    92.8748   MPKI: 0.007495
LLC TRANSLATION FROM L1D PREFETCHER ACCESS:       3037  HIT:        322  MISS:       2715  HIT %:    10.6026  MISS %:    89.3974   MPKI: 0.013575
LLC PREFETCH  REQUESTED:          0  ISSUED:          0  USEFUL:      15467  USELESS:    5310186
LLC USEFUL LOAD PREFETCHES:      15467 PREFETCH ISSUED TO LOWER LEVEL:   90924162  ACCURACY: 0.0170109
LLC TIMELY PREFETCHES:      15467 LATE PREFETCHES: 0 DROPPED PREFETCHES: 0
LLC PREFETCHES SAME FILL-ORIGIN LEVEL: 0 DIFFERENT FILL-ORIGIN LEVEL: 0
LLC AVERAGE MISS LATENCY: 3536.83 cycles
LLC RQ	ACCESS:    1914043	FORWARD:          0	MERGED:          0	TO_CACHE:    1914042
LLC WQ	ACCESS:    3099231	FORWARD:          2	MERGED:          0	TO_CACHE:    3099231
LLC PQ	ACCESS:    5431352	FORWARD:          0	MERGED:          0	TO_CACHE:    5431351

LLC Dense regions hint to LLC: 0

RAW hits: 257131
Loads Generated: 67247948
Loads sent to L1D: 66990815
Stores Generated: 13415024
Stores sent to L1D: 13415024
Major fault: 0 Minor fault: 21352
Allocated PAGES: 85385

CPU 1 cumulative IPC: 0.905164 instructions: 200000003 cycles: 220954500
ITLB TOTAL     ACCESS:   31779390  HIT:   31779368  MISS:         22  HIT %:    99.9999  MISS %: 6.92273e-05   MPKI: 0.00011
ITLB LOAD TRANSLATION ACCESS:   31779390  HIT:   31779368  MISS:         22  HIT %:    99.9999  MISS %: 6.92273e-05   MPKI: 0.00011
ITLB PREFETCH  REQUESTED:          0  ISSUED:          0  USEFUL:          0  USELESS:          0
ITLB USEFUL LOAD PREFETCHES:          0 PREFETCH ISSUED TO LOWER LEVEL:          0  ACCURACY: -nan
ITLB TIMELY PREFETCHES:          0 LATE PREFETCHES: 0 DROPPED PREFETCHES: 0
ITLB PREFETCHES SAME FILL-ORIGIN LEVEL: 0 DIFFERENT FILL-ORIGIN LEVEL: 0
ITLB AVERAGE MISS LATENCY: 785.364 cycles
ITLB RQ	ACCESS:   38569705	FORWARD:          0	MERGED:    6637416	TO_CACHE:   31932289

DTLB TOTAL     ACCESS:   51682675  HIT:   51615479  MISS:      67196  HIT %:      99.87  MISS %:   0.130016   MPKI: 0.33598
DTLB LOAD TRANSLATION ACCESS:   51682675  HIT:   51615479  MISS:      67196  HIT %:      99.87  MISS %:   0.130016   MPKI: 0.33598
DTLB PREFETCH  REQUESTED:          0  ISSUED:          0  USEFUL:          0  USELESS:          0
DTLB USEFUL LOAD PREFETCHES:          0 PREFETCH ISSUED TO LOWER LEVEL:          0  ACCURACY: -nan
DTLB TIMELY PREFETCHES:          0 LATE PREFETCHES: 0 DROPPED PREFETCHES: 0
DTLB PREFETCHES SAME FILL-ORIGIN LEVEL: 0 DIFFERENT FILL-ORIGIN LEVEL: 0
DTLB AVERAGE MISS LATENCY: 112.428 cycles
DTLB RQ	ACCESS:   59550853	FORWARD:          0	MERGED:    7543686	TO_CACHE:   52007167

STLB TOTAL     ACCESS:   16550774  HIT:   16519000  MISS:      31774  HIT %:     99.808  MISS %:   0.191979   MPKI: 0.15887
STLB LOAD TRANSLATION ACCESS:      67218  HIT:      45700  MISS:      21518  HIT %:    67.9877  MISS %:    32.0123   MPKI: 0.10759
STLB TRANSLATION FROM L1D PREFETCHER ACCESS:   16483556  HIT:   16473300  MISS:      10256  HIT %:    99.9378  MISS %:  0.0622196   MPKI: 0.05128
STLB PREFETCH  REQUESTED:          0  ISSUED:          0  USEFUL:      10339  USELESS:          1
STLB USEFUL LOAD PREFETCHES:      10339 PREFETCH ISSUED TO LOWER LEVEL:          0  ACCURACY: inf
STLB TIMELY PREFETCHES:      10339 LATE PREFETCHES: 2777 DROPPED PREFETCHES: 300022
STLB PREFETCHES SAME FILL-ORIGIN LEVEL: 0 DIFFERENT FILL-ORIGIN LEVEL: 0
STLB AVERAGE MISS LATENCY: 266.032 cycles
STLB RQ	ACCESS:   70150918	FORWARD:          0	MERGED:   53152227	TO_CACHE:   16998691

STLB Hit, L1D data hit: 0
STLB Hit, L2C data hit: 0
STLB Hit, LLC data hit: 0
STLB Hit, LLC data miss: 0
STLB STLB hints to L2: 0
L1D TOTAL     ACCESS:  108796247  HIT:  106675328  MISS:    2120919  HIT %:    98.0506  MISS %:    1.94944   MPKI: 10.6046
L1D LOAD      ACCESS:   45296086  HIT:   44895906  MISS:     400180  HIT %:    99.1165  MISS %:   0.883476   MPKI: 2.0009
L1D RFO       ACCESS:    8234900  HIT:    7738240  MISS:     496660  HIT %:    93.9688  MISS %:    6.03116   MPKI: 2.4833
L1D PREFETCH  ACCESS:   55265261  HIT:   54041182  MISS:    1224079  HIT %:    97.7851  MISS %:    2.21492   MPKI: 6.12039
L1D PREFETCH  REQUESTED:  210310110  ISSUED:  159097058  USEFUL:    1199668  USELESS:      36485
L1D USEFUL LOAD PREFETCHES:    1199668 PREFETCH ISSUED TO LOWER LEVEL:   10666670  ACCURACY: 11.2469
L1D TIMELY PREFETCHES:    1199668 LATE PREFETCHES: 62196 DROPPED PREFETCHES: 891780
L1D PREFETCHES SAME FILL-ORIGIN LEVEL: 1308580 DIFFERENT FILL-ORIGIN LEVEL: 9358090
L1D AVERAGE MISS LATENCY: 477.993 cycles
L1D RQ	ACCESS:   67306404	FORWARD:          0	MERGED:   21230368	TO_CACHE:   46074593
L1D WQ	ACCESS:   13476274	FORWARD:       1535	MERGED:         14	TO_CACHE:   13476260
L1D PQ	ACCESS:   89013555	FORWARD:          0	MERGED:   18929960	TO_CACHE:   70083503

L1D UNIQUE REGIONS ACCESSED: 0
L1D REGIONS CONFLICTS: 0
L1D Cross Page Prefetch Requests: 5708943
L1D Same Page Prefetch Requests: 103793719
L1D ROI Sum of L1D PQ occupancy: 1093736506
L1D PREFETCHES PUSHED FROM L2C: 0
L1I TOTAL     ACCESS:   38376201  HIT:   38375451  MISS:        750  HIT %:     99.998  MISS %: 0.00195434   MPKI: 0.00375
L1I LOAD      ACCESS:   38376201  HIT:   38375451  MISS:        750  HIT %:     99.998  MISS %: 0.00195434   MPKI: 0.00375
L1I PREFETCH  REQUESTED:          0  ISSUED:          0  USEFUL:          0  USELESS:          0
L1I USEFUL LOAD PREFETCHES:          0 PREFETCH ISSUED TO LOWER LEVEL:          0  ACCURACY: -nan
L1I TIMELY PREFETCHES:          0 LATE PREFETCHES: 0 DROPPED PREFETCHES: 0
L1I PREFETCHES SAME FILL-ORIGIN LEVEL: 0 DIFFERENT FILL-ORIGIN LEVEL: 0
L1I AVERAGE MISS LATENCY: 875.933 cycles
L1I RQ	ACCESS:   53007466	FORWARD:          0	MERGED:   14437761	TO_CACHE:   38569705

BTB TOTAL     ACCESS:   10836512  HIT:   10836171  MISS:        341  HIT %:    99.9969  MISS %: 0.00314677   MPKI: 0.001705
BTB BRANCH_DIRECT_JUMP	ACCESS:      63917  HIT:      63838  MISS:         79
BTB BRANCH_INDIRECT	ACCESS:          0  HIT:          0  MISS:          0
BTB BRANCH_CONDITIONAL	ACCESS:   10772519  HIT:   10772315  MISS:        204
BTB BRANCH_DIRECT_CALL	ACCESS:         38  HIT:          9  MISS:         29
BTB BRANCH_INDIRECT_CALL	ACCESS:          0  HIT:          0  MISS:          0
BTB BRANCH_RETURN	ACCESS:         38  HIT:          9  MISS:         29
BTB BRANCH_OTHER ACCESS:          0  HIT:          0  MISS:          0

L2C TOTAL     ACCESS:    7577117  HIT:    5688315  MISS:    1888802  HIT %:    75.0723  MISS %:    24.9277   MPKI: 9.44401
L2C LOAD      ACCESS:     338795  HIT:     213082  MISS:     125713  HIT %:    62.8941  MISS %:    37.1059   MPKI: 0.628565
L2C DATA LOAD MPKI: 0.624815
L2C INSTRUCTION LOAD MPKI: 0.00375
L2C RFO       ACCESS:     496656  HIT:      76403  MISS:     420253  HIT %:    15.3835  MISS %:    84.6165   MPKI: 2.10126
L2C PREFETCH  ACCESS:    5483890  HIT:    4206594  MISS:    1277296  HIT %:    76.7082  MISS %:    23.2918   MPKI: 6.38648
L2C DATA PREFETCH MPKI: 6.38648
L2C INSTRUCTION PREFETCH MPKI: 0
L2C WRITEBACK ACCESS:     923783  HIT:     862880  MISS:      60903  HIT %:    93.4072  MISS %:    6.59278   MPKI: 0.304515
L2C LOAD TRANSLATION ACCESS:      21189  HIT:      19590  MISS:       1599  HIT %:    92.4536  MISS %:    7.54637   MPKI: 0.007995
L2C TRANSLATION FROM L1D PREFETCHER ACCESS:     312804  HIT:     309766  MISS:       3038  HIT %:    99.0288  MISS %:   0.971215   MPKI: 0.01519
L2C PREFETCH  REQUESTED:          0  ISSUED:          0  USEFUL:     189858  USELESS:    1099532
L2C USEFUL LOAD PREFETCHES:     189858 PREFETCH ISSUED TO LOWER LEVEL:    1358698  ACCURACY: 13.9735
L2C TIMELY PREFETCHES:     189858 LATE PREFETCHES: 74063 DROPPED PREFETCHES: 0
L2C PREFETCHES SAME FILL-ORIGIN LEVEL: 792382 DIFFERENT FILL-ORIGIN LEVEL: 0
L2C AVERAGE MISS LATENCY: 905.762 cycles
L2C RQ	ACCESS:    1173481	FORWARD:          0	MERGED:          0	TO_CACHE:    1173459
L2C WQ	ACCESS:     927020	FORWARD:         43	MERGED:          0	TO_CACHE:     927020
L2C PQ	ACCESS:    9495486	FORWARD:          0	MERGED:      63035	TO_CACHE:    9432430

L2C Instructions Evicting Data 741
L2C Translations Evicting Data 4637
L2C Data Evicting Data 1825352
L2C Instructions Evicting Instructions 8
L2C Translations Evicting Instructions 6
L2C Data Evicting Instructions 712
L2C Instructions Evicting Translations 1
L2C Translations Evicting Translations 15
L2C Data Evicting Translations 4473
L2C Dense regions hint from L2: 0
PSCL5 TOTAL     ACCESS:     333904  HIT:     333904  MISS:          0  HIT %:        100  MISS %:          0   MPKI: 0
PSCL5 LOAD TRANSLATION ACCESS:      21145  HIT:      21145  MISS:          0  HIT %:        100  MISS %:          0   MPKI: 0
PSCL5 TRANSLATION FROM L1D PREFETCHER ACCESS:     312759  HIT:     312759  MISS:          0  HIT %:        100  MISS %:          0   MPKI: 0
PSCL5 PREFETCH  REQUESTED:          0  ISSUED:          0  USEFUL:          0  USELESS:          0
PSCL5 USEFUL LOAD PREFETCHES:          0 PREFETCH ISSUED TO LOWER LEVEL:          0  ACCURACY: -nan
PSCL5 TIMELY PREFETCHES:          0 LATE PREFETCHES: 0 DROPPED PREFETCHES: 0
PSCL5 PREFETCHES SAME FILL-ORIGIN LEVEL: 0 DIFFERENT FILL-ORIGIN LEVEL: 0

PSCL4 TOTAL     ACCESS:     333904  HIT:     333904  MISS:          0  HIT %:        100  MISS %:          0   MPKI: 0
PSCL4 LOAD TRANSLATION ACCESS:      21145  HIT:      21145  MISS:          0  HIT %:        100  MISS %:          0   MPKI: 0
PSCL4 TRANSLATION FROM L1D PREFETCHER ACCESS:     312759  HIT:     312759  MISS:          0  HIT %:        100  MISS %:          0   MPKI: 0
PSCL4 PREFETCH  REQUESTED:          0  ISSUED:          0  USEFUL:          0  USELESS:          0
PSCL4 USEFUL LOAD PREFETCHES:          0 PREFETCH ISSUED TO LOWER LEVEL:          0  ACCURACY: -nan
PSCL4 TIMELY PREFETCHES:          0 LATE PREFETCHES: 0 DROPPED PREFETCHES: 0
PSCL4 PREFETCHES SAME FILL-ORIGIN LEVEL: 0 DIFFERENT FILL-ORIGIN LEVEL: 0

PSCL3 TOTAL     ACCESS:     333904  HIT:     333904  MISS:          0  HIT %:        100  MISS %:          0   MPKI: 0
PSCL3 LOAD TRANSLATION ACCESS:      21145  HIT:      21145  MISS:          0  HIT %:        100  MISS %:          0   MPKI: 0
PSCL3 TRANSLATION FROM L1D PREFETCHER ACCESS:     312759  HIT:     312759  MISS:          0  HIT %:        100  MISS %:          0   MPKI: 0
PSCL3 PREFETCH  REQUESTED:          0  ISSUED:          0  USEFUL:          0  USELESS:          0
PSCL3 USEFUL LOAD PREFETCHES:          0 PREFETCH ISSUED TO LOWER LEVEL:          0  ACCURACY: -nan
PSCL3 TIMELY PREFETCHES:          0 LATE PREFETCHES: 0 DROPPED PREFETCHES: 0
PSCL3 PREFETCHES SAME FILL-ORIGIN LEVEL: 0 DIFFERENT FILL-ORIGIN LEVEL: 0

PSCL2 TOTAL     ACCESS:     333675  HIT:     333565  MISS:        110  HIT %:     99.967  MISS %:  0.0329662   MPKI: 0.00055
PSCL2 LOAD TRANSLATION ACCESS:      21163  HIT:      21053  MISS:        110  HIT %:    99.4802  MISS %:   0.519775   MPKI: 0.00055
PSCL2 TRANSLATION FROM L1D PREFETCHER ACCESS:     312512  HIT:     312512  MISS:          0  HIT %:        100  MISS %:          0   MPKI: 0
PSCL2 PREFETCH  REQUESTED:          0  ISSUED:          0  USEFUL:          0  USELESS:          0
PSCL2 USEFUL LOAD PREFETCHES:          0 PREFETCH ISSUED TO LOWER LEVEL:          0  ACCURACY: -nan
PSCL2 TIMELY PREFETCHES:          0 LATE PREFETCHES: 0 DROPPED PREFETCHES: 0
PSCL2 PREFETCHES SAME FILL-ORIGIN LEVEL: 0 DIFFERENT FILL-ORIGIN LEVEL: 0

LLC TOTAL     ACCESS:    2600558  HIT:     787211  MISS:    1813347  HIT %:    30.2708  MISS %:    69.7292   MPKI: 9.06673
LLC LOAD      ACCESS:      51765  HIT:       5030  MISS:      46735  HIT %:    9.71699  MISS %:     90.283   MPKI: 0.233675
LLC RFO       ACCESS:     420252  HIT:       4801  MISS:     415451  HIT %:    1.14241  MISS %:    98.8576   MPKI: 2.07725
LLC PREFETCH  ACCESS:    1351245  HIT:      29121  MISS:    1322124  HIT %:    2.15512  MISS %:    97.8449   MPKI: 6.61062
LLC WRITEBACK ACCESS:     772659  HIT:     747832  MISS:      24827  HIT %:    96.7868  MISS %:    3.21319   MPKI: 0.124135
LLC LOAD TRANSLATION ACCESS:       1599  HIT:        104  MISS:       1495  HIT %:    6.50407  MISS %:    93.4959   MPKI: 0.007475
LLC TRANSLATION FROM L1D PREFETCHER ACCESS:       3038  HIT:        323  MISS:       2715  HIT %:     10.632  MISS %:     89.368   MPKI: 0.013575
LLC PREFETCH  REQUESTED:          0  ISSUED:          0  USEFUL:      15467  USELESS:    5310186
LLC USEFUL LOAD PREFETCHES:      15467 PREFETCH ISSUED TO LOWER LEVEL:   90924162  ACCURACY: 0.0170109
LLC TIMELY PREFETCHES:      15467 LATE PREFETCHES: 0 DROPPED PREFETCHES: 0
LLC PREFETCHES SAME FILL-ORIGIN LEVEL: 0 DIFFERENT FILL-ORIGIN LEVEL: 0
LLC AVERAGE MISS LATENCY: 3536.25 cycles
LLC RQ	ACCESS:    1914043	FORWARD:          0	MERGED:          0	TO_CACHE:    1914042
LLC WQ	ACCESS:    3099231	FORWARD:          2	MERGED:          0	TO_CACHE:    3099231
LLC PQ	ACCESS:    5431352	FORWARD:          0	MERGED:          0	TO_CACHE:    5431351

LLC Dense regions hint to LLC: 0

RAW hits: 257067
Loads Generated: 67248913
Loads sent to L1D: 66991842
Stores Generated: 13414770
Stores sent to L1D: 13414771
Major fault: 0 Minor fault: 21348
Allocated PAGES: 85385

CPU 2 cumulative IPC: 0.904688 instructions: 200000003 cycles: 221070665
ITLB TOTAL     ACCESS:   31780759  HIT:   31780737  MISS:         22  HIT %:    99.9999  MISS %: 6.92243e-05   MPKI: 0.00011
ITLB LOAD TRANSLATION ACCESS:   31780759  HIT:   31780737  MISS:         22  HIT %:    99.9999  MISS %: 6.92243e-05   MPKI: 0.00011
ITLB PREFETCH  REQUESTED:          0  ISSUED:          0  USEFUL:          0  USELESS:          0
ITLB USEFUL LOAD PREFETCHES:          0 PREFETCH ISSUED TO LOWER LEVEL:          0  ACCURACY: -nan
ITLB TIMELY PREFETCHES:          0 LATE PREFETCHES: 0 DROPPED PREFETCHES: 0
ITLB PREFETCHES SAME FILL-ORIGIN LEVEL: 0 DIFFERENT FILL-ORIGIN LEVEL: 0
ITLB AVERAGE MISS LATENCY: 698.818 cycles
ITLB RQ	ACCESS:   38535138	FORWARD:          0	MERGED:    6629828	TO_CACHE:   31905310

DTLB TOTAL     ACCESS:   51698206  HIT:   51630974  MISS:      67232  HIT %:      99.87  MISS %:   0.130047   MPKI: 0.33616
DTLB LOAD TRANSLATION ACCESS:   51698206  HIT:   51630974  MISS:      67232  HIT %:      99.87  MISS %:   0.130047   MPKI: 0.33616
DTLB PREFETCH  REQUESTED:          0  ISSUED:          0  USEFUL:          0  USELESS:          0
DTLB USEFUL LOAD PREFETCHES:          0 PREFETCH ISSUED TO LOWER LEVEL:          0  ACCURACY: -nan
DTLB TIMELY PREFETCHES:          0 LATE PREFETCHES: 0 DROPPED PREFETCHES: 0
DTLB PREFETCHES SAME FILL-ORIGIN LEVEL: 0 DIFFERENT FILL-ORIGIN LEVEL: 0
DTLB AVERAGE MISS LATENCY: 118.901 cycles
DTLB RQ	ACCESS:   59503571	FORWARD:          0	MERGED:    7536375	TO_CACHE:   51967196

STLB TOTAL     ACCESS:   16672190  HIT:   16640416  MISS:      31774  HIT %:    99.8094  MISS %:   0.190581   MPKI: 0.15887
STLB LOAD TRANSLATION ACCESS:      67254  HIT:      45680  MISS:      21574  HIT %:    67.9216  MISS %:    32.0784   MPKI: 0.10787
STLB TRANSLATION FROM L1D PREFETCHER ACCESS:   16604936  HIT:   16594736  MISS:      10200  HIT %:    99.9386  MISS %:  0.0614275   MPKI: 0.051
STLB PREFETCH  REQUESTED:          0  ISSUED:          0  USEFUL:      10266  USELESS:          1
STLB USEFUL LOAD PREFETCHES:      10266 PREFETCH ISSUED TO LOWER LEVEL:          0  ACCURACY: inf
STLB TIMELY PREFETCHES:      10266 LATE PREFETCHES: 2790 DROPPED PREFETCHES: 301691
STLB PREFETCHES SAME FILL-ORIGIN LEVEL: 0 DIFFERENT FILL-ORIGIN LEVEL: 0
STLB AVERAGE MISS LATENCY: 279.939 cycles
STLB RQ	ACCESS:   70302671	FORWARD:          0	MERGED:   53202367	TO_CACHE:   17100304

STLB Hit, L1D data hit: 0
STLB Hit, L2C data hit: 0
STLB Hit, LLC data hit: 0
STLB Hit, LLC data miss: 0
STLB STLB hints to L2: 0
L1D TOTAL     ACCESS:  109031574  HIT:  106909733  MISS:    2121841  HIT %:    98.0539  MISS %:    1.94608   MPKI: 10.6092
L1D LOAD      ACCESS:   45313647  HIT:   44913148  MISS:     400499  HIT %:    99.1162  MISS %:   0.883837   MPKI: 2.00249
L1D RFO       ACCESS:    8237121  HIT:    7740470  MISS:     496651  HIT %:    93.9706  MISS %:    6.02942   MPKI: 2.48325
L1D PREFETCH  ACCESS:   55480806  HIT:   54256115  MISS:    1224691  HIT %:    97.7926  MISS %:    2.20741   MPKI: 6.12345
L1D PREFETCH  REQUESTED:  211352307  ISSUED:  159436092  USEFUL:    1196867  USELESS:      37131
L1D USEFUL LOAD PREFETCHES:    1196867 PREFETCH ISSUED TO LOWER LEVEL:   10746380  ACCURACY: 11.1374
L1D TIMELY PREFETCHES:    1196867 LATE PREFETCHES: 61545 DROPPED PREFETCHES: 886249
L1D PREFETCHES SAME FILL-ORIGIN LEVEL: 1310628 DIFFERENT FILL-ORIGIN LEVEL: 9435752
L1D AVERAGE MISS LATENCY: 475.098 cycles
L1D RQ	ACCESS:   67243828	FORWARD:          0	MERGED:   21204458	TO_CACHE:   46037939
L1D WQ	ACCESS:   13465655	FORWARD:       1520	MERGED:         23	TO_CACHE:   13465632
L1D PQ	ACCESS:   89200830	FORWARD:          0	MERGED:   18965479	TO_CACHE:   70235262

L1D UNIQUE REGIONS ACCESSED: 0
L1D REGIONS CONFLICTS: 0
L1D Cross Page Prefetch Requests: 5781398
L1D Same Page Prefetch Requests: 103906011
L1D ROI Sum of L1D PQ occupancy: 1095961230
L1D PREFETCHES PUSHED FROM L2C: 0
L1I TOTAL     ACCESS:   38376938  HIT:   38376188  MISS:        750  HIT %:     99.998  MISS %:  0.0019543   MPKI: 0.00375
L1I LOAD      ACCESS:   38376938  HIT:   38376188  MISS:        750  HIT %:     99.998  MISS %:  0.0019543   MPKI: 0.00375
L1I PREFETCH  REQUESTED:          0  ISSUED:          0  USEFUL:          0  USELESS:          0
L1I USEFUL LOAD PREFETCHES:          0 PREFETCH ISSUED TO LOWER LEVEL:          0  ACCURACY: -nan
L1I TIMELY PREFETCHES:          0 LATE PREFETCHES: 0 DROPPED PREFETCHES: 0
L1I PREFETCHES SAME FILL-ORIGIN LEVEL: 0 DIFFERENT FILL-ORIGIN LEVEL: 0
L1I AVERAGE MISS LATENCY: 873.268 cycles
L1I RQ	ACCESS:   52966679	FORWARD:          0	MERGED:   14431541	TO_CACHE:   38535138

BTB TOTAL     ACCESS:   10836529  HIT:   10836188  MISS:        341  HIT %:    99.9969  MISS %: 0.00314676   MPKI: 0.001705
BTB BRANCH_DIRECT_JUMP	ACCESS:      63917  HIT:      63838  MISS:         79
BTB BRANCH_INDIRECT	ACCESS:          0  HIT:          0  MISS:          0
BTB BRANCH_CONDITIONAL	ACCESS:   10772536  HIT:   10772332  MISS:        204
BTB BRANCH_DIRECT_CALL	ACCESS:         38  HIT:          9  MISS:         29
BTB BRANCH_INDIRECT_CALL	ACCESS:          0  HIT:          0  MISS:          0
BTB BRANCH_RETURN	ACCESS:         38  HIT:          9  MISS:         29
BTB BRANCH_OTHER ACCESS:          0  HIT:          0  MISS:          0

L2C TOTAL     ACCESS:    7666527  HIT:    5774261  MISS:    1892266  HIT %:    75.3178  MISS %:    24.6822   MPKI: 9.46133
L2C LOAD      ACCESS:     339790  HIT:     213469  MISS:     126321  HIT %:    62.8238  MISS %:    37.1762   MPKI: 0.631605
L2C DATA LOAD MPKI: 0.627855
L2C INSTRUCTION LOAD MPKI: 0.00375
L2C RFO       ACCESS:     496644  HIT:      74603  MISS:     422041  HIT %:    15.0214  MISS %:    84.9786   MPKI: 2.1102
L2C PREFETCH  ACCESS:    5570440  HIT:    4292181  MISS:    1278259  HIT %:    77.0528  MISS %:    22.9472   MPKI: 6.39129
L2C DATA PREFETCH MPKI: 6.39129
L2C INSTRUCTION PREFETCH MPKI: 0
L2C WRITEBACK ACCESS:     923843  HIT:     862817  MISS:      61026  HIT %:    93.3943  MISS %:    6.60567   MPKI: 0.30513
L2C LOAD TRANSLATION ACCESS:      21240  HIT:      19635  MISS:       1605  HIT %:    92.4435  MISS %:     7.5565   MPKI: 0.008025
L2C TRANSLATION FROM L1D PREFETCHER ACCESS:     314570  HIT:     311556  MISS:       3014  HIT %:    99.0419  MISS %:   0.958133   MPKI: 0.01507
L2C PREFETCH  REQUESTED:          0  ISSUED:          0  USEFUL:     190273  USELESS:    1098369
L2C USEFUL LOAD PREFETCHES:     190273 PREFETCH ISSUED TO LOWER LEVEL:    1358586  ACCURACY: 14.0052
L2C TIMELY PREFETCHES:     190273 LATE PREFETCHES: 74517 DROPPED PREFETCHES: 0
L2C PREFETCHES SAME FILL-ORIGIN LEVEL: 795072 DIFFERENT FILL-ORIGIN LEVEL: 0
L2C AVERAGE MISS LATENCY: 901.349 cycles
L2C RQ	ACCESS:    1175611	FORWARD:          0	MERGED:          0	TO_CACHE:    1175599
L2C WQ	ACCESS:     926559	FORWARD:         32	MERGED:          0	TO_CACHE:     926559
L2C PQ	ACCESS:    9530497	FORWARD:          0	MERGED:      69461	TO_CACHE:    9461016

L2C Instructions Evicting Data 749
L2C Translations Evicting Data 4609
L2C Data Evicting Data 1827198
L2C Instructions Evicting Instructions 0
L2C Translations Evicting Instructions 2
L2C Data Evicting Instructions 719
L2C Instructions Evicting Translations 1
L2C Translations Evicting Translations 28
L2C Data Evicting Translations 4440
L2C Dense regions hint from L2: 0
PSCL5 TOTAL     ACCESS:     335688  HIT:     335688  MISS:          0  HIT %:        100  MISS %:          0   MPKI: 0
PSCL5 LOAD TRANSLATION ACCESS:      21193  HIT:      21193  MISS:          0  HIT %:        100  MISS %:          0   MPKI: 0
PSCL5 TRANSLATION FROM L1D PREFETCHER ACCESS:     314495  HIT:     314495  MISS:          0  HIT %:        100  MISS %:          0   MPKI: 0
PSCL5 PREFETCH  REQUESTED:          0  ISSUED:          0  USEFUL:          0  USELESS:          0
PSCL5 USEFUL LOAD PREFETCHES:          0 PREFETCH ISSUED TO LOWER LEVEL:          0  ACCURACY: -nan
PSCL5 TIMELY PREFETCHES:          0 LATE PREFETCHES: 0 DROPPED PREFETCHES: 0
PSCL5 PREFETCHES SAME FILL-ORIGIN LEVEL: 0 DIFFERENT FILL-ORIGIN LEVEL: 0

PSCL4 TOTAL     ACCESS:     335688  HIT:     335688  MISS:          0  HIT %:        100  MISS %:          0   MPKI: 0
PSCL4 LOAD TRANSLATION ACCESS:      21193  HIT:      21193  MISS:          0  HIT %:        100  MISS %:          0   MPKI: 0
PSCL4 TRANSLATION FROM L1D PREFETCHER ACCESS:     314495  HIT:     314495  MISS:          0  HIT %:        100  MISS %:          0   MPKI: 0
PSCL4 PREFETCH  REQUESTED:          0  ISSUED:          0  USEFUL:          0  USELESS:          0
PSCL4 USEFUL LOAD PREFETCHES:          0 PREFETCH ISSUED TO LOWER LEVEL:          0  ACCURACY: -nan
PSCL4 TIMELY PREFETCHES:          0 LATE PREFETCHES: 0 DROPPED PREFETCHES: 0
PSCL4 PREFETCHES SAME FILL-ORIGIN LEVEL: 0 DIFFERENT FILL-ORIGIN LEVEL: 0

PSCL3 TOTAL     ACCESS:     335688  HIT:     335688  MISS:          0  HIT %:        100  MISS %:          0   MPKI: 0
PSCL3 LOAD TRANSLATION ACCESS:      21193  HIT:      21193  MISS:          0  HIT %:        100  MISS %:          0   MPKI: 0
PSCL3 TRANSLATION FROM L1D PREFETCHER ACCESS:     314495  HIT:     314495  MISS:          0  HIT %:        100  MISS %:          0   MPKI: 0
PSCL3 PREFETCH  REQUESTED:          0  ISSUED:          0  USEFUL:          0  USELESS:          0
PSCL3 USEFUL LOAD PREFETCHES:          0 PREFETCH ISSUED TO LOWER LEVEL:          0  ACCURACY: -nan
PSCL3 TIMELY PREFETCHES:          0 LATE PREFETCHES: 0 DROPPED PREFETCHES: 0
PSCL3 PREFETCHES SAME FILL-ORIGIN LEVEL: 0 DIFFERENT FILL-ORIGIN LEVEL: 0

PSCL2 TOTAL     ACCESS:     335456  HIT:     335346  MISS:        110  HIT %:    99.9672  MISS %:  0.0327912   MPKI: 0.00055
PSCL2 LOAD TRANSLATION ACCESS:      21208  HIT:      21098  MISS:        110  HIT %:    99.4813  MISS %:   0.518672   MPKI: 0.00055
PSCL2 TRANSLATION FROM L1D PREFETCHER ACCESS:     314248  HIT:     314248  MISS:          0  HIT %:        100  MISS %:          0   MPKI: 0
PSCL2 PREFETCH  REQUESTED:          0  ISSUED:          0  USEFUL:          0  USELESS:          0
PSCL2 USEFUL LOAD PREFETCHES:          0 PREFETCH ISSUED TO LOWER LEVEL:          0  ACCURACY: -nan
PSCL2 TIMELY PREFETCHES:          0 LATE PREFETCHES: 0 DROPPED PREFETCHES: 0
PSCL2 PREFETCHES SAME FILL-ORIGIN LEVEL: 0 DIFFERENT FILL-ORIGIN LEVEL: 0

LLC TOTAL     ACCESS:    2605822  HIT:     792781  MISS:    1813041  HIT %:    30.4235  MISS %:    69.5765   MPKI: 9.0652
LLC LOAD      ACCESS:      51967  HIT:       5034  MISS:      46933  HIT %:    9.68692  MISS %:    90.3131   MPKI: 0.234665
LLC RFO       ACCESS:     422038  HIT:       6646  MISS:     415392  HIT %:    1.57474  MISS %:    98.4253   MPKI: 2.07696
LLC PREFETCH  ACCESS:    1352616  HIT:      30532  MISS:    1322084  HIT %:    2.25726  MISS %:    97.7427   MPKI: 6.61042
LLC WRITEBACK ACCESS:     774582  HIT:     750166  MISS:      24416  HIT %:    96.8478  MISS %:    3.15215   MPKI: 0.12208
LLC LOAD TRANSLATION ACCESS:       1605  HIT:         99  MISS:       1506  HIT %:    6.16822  MISS %:    93.8318   MPKI: 0.00753
LLC TRANSLATION FROM L1D PREFETCHER ACCESS:       3014  HIT:        304  MISS:       2710  HIT %:    10.0863  MISS %:    89.9137   MPKI: 0.01355
LLC PREFETCH  REQUESTED:          0  ISSUED:          0  USEFUL:      15467  USELESS:    5310186
LLC USEFUL LOAD PREFETCHES:      15467 PREFETCH ISSUED TO LOWER LEVEL:   90924162  ACCURACY: 0.0170109
LLC TIMELY PREFETCHES:      15467 LATE PREFETCHES: 0 DROPPED PREFETCHES: 0
LLC PREFETCHES SAME FILL-ORIGIN LEVEL: 0 DIFFERENT FILL-ORIGIN LEVEL: 0
LLC AVERAGE MISS LATENCY: 3536.84 cycles
LLC RQ	ACCESS:    1914043	FORWARD:          0	MERGED:          0	TO_CACHE:    1914042
LLC WQ	ACCESS:    3099231	FORWARD:          2	MERGED:          0	TO_CACHE:    3099231
LLC PQ	ACCESS:    5431352	FORWARD:          0	MERGED:          0	TO_CACHE:    5431351

LLC Dense regions hint to LLC: 0

RAW hits: 257017
Loads Generated: 67248900
Loads sent to L1D: 66991883
Stores Generated: 13414774
Stores sent to L1D: 13414772
Major fault: 0 Minor fault: 21348
Allocated PAGES: 85385

CPU 3 cumulative IPC: 0.902164 instructions: 200000001 cycles: 221689078
ITLB TOTAL     ACCESS:   31781241  HIT:   31781219  MISS:         22  HIT %:    99.9999  MISS %: 6.92232e-05   MPKI: 0.00011
ITLB LOAD TRANSLATION ACCESS:   31781241  HIT:   31781219  MISS:         22  HIT %:    99.9999  MISS %: 6.92232e-05   MPKI: 0.00011
ITLB PREFETCH  REQUESTED:          0  ISSUED:          0  USEFUL:          0  USELESS:          0
ITLB USEFUL LOAD PREFETCHES:          0 PREFETCH ISSUED TO LOWER LEVEL:          0  ACCURACY: -nan
ITLB TIMELY PREFETCHES:          0 LATE PREFETCHES: 0 DROPPED PREFETCHES: 0
ITLB PREFETCHES SAME FILL-ORIGIN LEVEL: 0 DIFFERENT FILL-ORIGIN LEVEL: 0
ITLB AVERAGE MISS LATENCY: 977.591 cycles
ITLB RQ	ACCESS:   38378381	FORWARD:          0	MERGED:    6597133	TO_CACHE:   31781248

DTLB TOTAL     ACCESS:   51688136  HIT:   51620957  MISS:      67179  HIT %:      99.87  MISS %:    0.12997   MPKI: 0.335895
DTLB LOAD TRANSLATION ACCESS:   51688136  HIT:   51620957  MISS:      67179  HIT %:      99.87  MISS %:    0.12997   MPKI: 0.335895
DTLB PREFETCH  REQUESTED:          0  ISSUED:          0  USEFUL:          0  USELESS:          0
DTLB USEFUL LOAD PREFETCHES:          0 PREFETCH ISSUED TO LOWER LEVEL:          0  ACCURACY: -nan
DTLB TIMELY PREFETCHES:          0 LATE PREFETCHES: 0 DROPPED PREFETCHES: 0
DTLB PREFETCHES SAME FILL-ORIGIN LEVEL: 0 DIFFERENT FILL-ORIGIN LEVEL: 0
DTLB AVERAGE MISS LATENCY: 131.223 cycles
DTLB RQ	ACCESS:   59256246	FORWARD:          0	MERGED:    7510329	TO_CACHE:   51745917

STLB TOTAL     ACCESS:   16552573  HIT:   16520798  MISS:      31775  HIT %:     99.808  MISS %:   0.191964   MPKI: 0.158875
STLB LOAD TRANSLATION ACCESS:      67201  HIT:      45607  MISS:      21594  HIT %:    67.8665  MISS %:    32.1335   MPKI: 0.10797
STLB TRANSLATION FROM L1D PREFETCHER ACCESS:   16485372  HIT:   16475191  MISS:      10181  HIT %:    99.9382  MISS %:  0.0617578   MPKI: 0.050905
STLB PREFETCH  REQUESTED:          0  ISSUED:          0  USEFUL:      10180  USELESS:          1
STLB USEFUL LOAD PREFETCHES:      10180 PREFETCH ISSUED TO LOWER LEVEL:          0  ACCURACY: inf
STLB TIMELY PREFETCHES:      10180 LATE PREFETCHES: 2808 DROPPED PREFETCHES: 294161
STLB PREFETCHES SAME FILL-ORIGIN LEVEL: 0 DIFFERENT FILL-ORIGIN LEVEL: 0
STLB AVERAGE MISS LATENCY: 302.012 cycles
STLB RQ	ACCESS:   69455799	FORWARD:          0	MERGED:   52572330	TO_CACHE:   16883469

STLB Hit, L1D data hit: 0
STLB Hit, L2C data hit: 0
STLB Hit, LLC data hit: 0
STLB Hit, LLC data miss: 0
STLB STLB hints to L2: 0
L1D TOTAL     ACCESS:  108564244  HIT:  106443529  MISS:    2120715  HIT %:    98.0466  MISS %:    1.95342   MPKI: 10.6036
L1D LOAD      ACCESS:   45294164  HIT:   44886157  MISS:     408007  HIT %:    99.0992  MISS %:   0.900794   MPKI: 2.04003
L1D RFO       ACCESS:    8235316  HIT:    7738698  MISS:     496618  HIT %:    93.9697  MISS %:    6.03035   MPKI: 2.48309
L1D PREFETCH  ACCESS:   55034764  HIT:   53818674  MISS:    1216090  HIT %:    97.7903  MISS %:    2.20968   MPKI: 6.08045
L1D PREFETCH  REQUESTED:  207574749  ISSUED:  157303983  USEFUL:    1180289  USELESS:      35784
L1D USEFUL LOAD PREFETCHES:    1180289 PREFETCH ISSUED TO LOWER LEVEL:   10584554  ACCURACY: 11.1511
L1D TIMELY PREFETCHES:    1180289 LATE PREFETCHES: 60424 DROPPED PREFETCHES: 871742
L1D PREFETCHES SAME FILL-ORIGIN LEVEL: 1299068 DIFFERENT FILL-ORIGIN LEVEL: 9285486
L1D AVERAGE MISS LATENCY: 474.514 cycles
L1D RQ	ACCESS:   66991814	FORWARD:          0	MERGED:   21148615	TO_CACHE:   45841874
L1D WQ	ACCESS:   13414386	FORWARD:       1414	MERGED:         14	TO_CACHE:   13414372
L1D PQ	ACCESS:   87915385	FORWARD:          0	MERGED:   18526698	TO_CACHE:   69388598

L1D UNIQUE REGIONS ACCESSED: 0
L1D REGIONS CONFLICTS: 0
L1D Cross Page Prefetch Requests: 5710731
L1D Same Page Prefetch Requests: 102685462
L1D ROI Sum of L1D PQ occupancy: 1082459928
L1D PREFETCHES PUSHED FROM L2C: 0
L1I TOTAL     ACCESS:   38378035  HIT:   38377285  MISS:        750  HIT %:     99.998  MISS %: 0.00195424   MPKI: 0.00375
L1I LOAD      ACCESS:   38378035  HIT:   38377285  MISS:        750  HIT %:     99.998  MISS %: 0.00195424   MPKI: 0.00375
L1I PREFETCH  REQUESTED:          0  ISSUED:          0  USEFUL:          0  USELESS:          0
L1I USEFUL LOAD PREFETCHES:          0 PREFETCH ISSUED TO LOWER LEVEL:          0  ACCURACY: -nan
L1I TIMELY PREFETCHES:          0 LATE PREFETCHES: 0 DROPPED PREFETCHES: 0
L1I PREFETCHES SAME FILL-ORIGIN LEVEL: 0 DIFFERENT FILL-ORIGIN LEVEL: 0
L1I AVERAGE MISS LATENCY: 807.505 cycles
L1I RQ	ACCESS:   52737344	FORWARD:          0	MERGED:   14358963	TO_CACHE:   38378381

BTB TOTAL     ACCESS:   10836542  HIT:   10836201  MISS:        341  HIT %:    99.9969  MISS %: 0.00314676   MPKI: 0.001705
BTB BRANCH_DIRECT_JUMP	ACCESS:      63917  HIT:      63838  MISS:         79
BTB BRANCH_INDIRECT	ACCESS:          0  HIT:          0  MISS:          0
BTB BRANCH_CONDITIONAL	ACCESS:   10772549  HIT:   10772345  MISS:        204
BTB BRANCH_DIRECT_CALL	ACCESS:         38  HIT:          9  MISS:         29
BTB BRANCH_INDIRECT_CALL	ACCESS:          0  HIT:          0  MISS:          0
BTB BRANCH_RETURN	ACCESS:         38  HIT:          9  MISS:         29
BTB BRANCH_OTHER ACCESS:          0  HIT:          0  MISS:          0

L2C TOTAL     ACCESS:    7572685  HIT:    5683666  MISS:    1889019  HIT %:    75.0548  MISS %:    24.9452   MPKI: 9.44509
L2C LOAD      ACCESS:     348322  HIT:     219887  MISS:     128435  HIT %:    63.1275  MISS %:    36.8725   MPKI: 0.642175
L2C DATA LOAD MPKI: 0.638425
L2C INSTRUCTION LOAD MPKI: 0.00375
L2C RFO       ACCESS:     496613  HIT:      74968  MISS:     421645  HIT %:    15.0959  MISS %:    84.9041   MPKI: 2.10822
L2C PREFETCH  ACCESS:    5475495  HIT:    4200844  MISS:    1274651  HIT %:    76.7208  MISS %:    23.2792   MPKI: 6.37325
L2C DATA PREFETCH MPKI: 6.37325
L2C INSTRUCTION PREFETCH MPKI: 0
L2C WRITEBACK ACCESS:     923789  HIT:     864180  MISS:      59609  HIT %:    93.5473  MISS %:    6.45266   MPKI: 0.298045
L2C LOAD TRANSLATION ACCESS:      21240  HIT:      19623  MISS:       1617  HIT %:     92.387  MISS %:    7.61299   MPKI: 0.008085
L2C TRANSLATION FROM L1D PREFETCHER ACCESS:     307226  HIT:     304164  MISS:       3062  HIT %:    99.0033  MISS %:    0.99666   MPKI: 0.01531
L2C PREFETCH  REQUESTED:          0  ISSUED:          0  USEFUL:     195359  USELESS:    1084156
L2C USEFUL LOAD PREFETCHES:     195359 PREFETCH ISSUED TO LOWER LEVEL:    1351072  ACCURACY: 14.4596
L2C TIMELY PREFETCHES:     195359 LATE PREFETCHES: 76418 DROPPED PREFETCHES: 0
L2C PREFETCHES SAME FILL-ORIGIN LEVEL: 795115 DIFFERENT FILL-ORIGIN LEVEL: 0
L2C AVERAGE MISS LATENCY: 896.447 cycles
L2C RQ	ACCESS:    1173412	FORWARD:          0	MERGED:          0	TO_CACHE:    1173401
L2C WQ	ACCESS:     923789	FORWARD:         32	MERGED:          0	TO_CACHE:     923789
L2C PQ	ACCESS:    9422653	FORWARD:          0	MERGED:      64425	TO_CACHE:    9358207

L2C Instructions Evicting Data 743
L2C Translations Evicting Data 4660
L2C Data Evicting Data 1818747
L2C Instructions Evicting Instructions 2
L2C Translations Evicting Instructions 2
L2C Data Evicting Instructions 732
L2C Instructions Evicting Translations 5
L2C Translations Evicting Translations 17
L2C Data Evicting Translations 4502
L2C Dense regions hint from L2: 0
PSCL5 TOTAL     ACCESS:     328344  HIT:     328344  MISS:          0  HIT %:        100  MISS %:          0   MPKI: 0
PSCL5 LOAD TRANSLATION ACCESS:      21194  HIT:      21194  MISS:          0  HIT %:        100  MISS %:          0   MPKI: 0
PSCL5 TRANSLATION FROM L1D PREFETCHER ACCESS:     307150  HIT:     307150  MISS:          0  HIT %:        100  MISS %:          0   MPKI: 0
PSCL5 PREFETCH  REQUESTED:          0  ISSUED:          0  USEFUL:          0  USELESS:          0
PSCL5 USEFUL LOAD PREFETCHES:          0 PREFETCH ISSUED TO LOWER LEVEL:          0  ACCURACY: -nan
PSCL5 TIMELY PREFETCHES:          0 LATE PREFETCHES: 0 DROPPED PREFETCHES: 0
PSCL5 PREFETCHES SAME FILL-ORIGIN LEVEL: 0 DIFFERENT FILL-ORIGIN LEVEL: 0

PSCL4 TOTAL     ACCESS:     328344  HIT:     328344  MISS:          0  HIT %:        100  MISS %:          0   MPKI: 0
PSCL4 LOAD TRANSLATION ACCESS:      21194  HIT:      21194  MISS:          0  HIT %:        100  MISS %:          0   MPKI: 0
PSCL4 TRANSLATION FROM L1D PREFETCHER ACCESS:     307150  HIT:     307150  MISS:          0  HIT %:        100  MISS %:          0   MPKI: 0
PSCL4 PREFETCH  REQUESTED:          0  ISSUED:          0  USEFUL:          0  USELESS:          0
PSCL4 USEFUL LOAD PREFETCHES:          0 PREFETCH ISSUED TO LOWER LEVEL:          0  ACCURACY: -nan
PSCL4 TIMELY PREFETCHES:          0 LATE PREFETCHES: 0 DROPPED PREFETCHES: 0
PSCL4 PREFETCHES SAME FILL-ORIGIN LEVEL: 0 DIFFERENT FILL-ORIGIN LEVEL: 0

PSCL3 TOTAL     ACCESS:     328344  HIT:     328344  MISS:          0  HIT %:        100  MISS %:          0   MPKI: 0
PSCL3 LOAD TRANSLATION ACCESS:      21194  HIT:      21194  MISS:          0  HIT %:        100  MISS %:          0   MPKI: 0
PSCL3 TRANSLATION FROM L1D PREFETCHER ACCESS:     307150  HIT:     307150  MISS:          0  HIT %:        100  MISS %:          0   MPKI: 0
PSCL3 PREFETCH  REQUESTED:          0  ISSUED:          0  USEFUL:          0  USELESS:          0
PSCL3 USEFUL LOAD PREFETCHES:          0 PREFETCH ISSUED TO LOWER LEVEL:          0  ACCURACY: -nan
PSCL3 TIMELY PREFETCHES:          0 LATE PREFETCHES: 0 DROPPED PREFETCHES: 0
PSCL3 PREFETCHES SAME FILL-ORIGIN LEVEL: 0 DIFFERENT FILL-ORIGIN LEVEL: 0

PSCL2 TOTAL     ACCESS:     328171  HIT:     328061  MISS:        110  HIT %:    99.9665  MISS %:  0.0335191   MPKI: 0.00055
PSCL2 LOAD TRANSLATION ACCESS:      21210  HIT:      21100  MISS:        110  HIT %:    99.4814  MISS %:   0.518623   MPKI: 0.00055
PSCL2 TRANSLATION FROM L1D PREFETCHER ACCESS:     306961  HIT:     306961  MISS:          0  HIT %:        100  MISS %:          0   MPKI: 0
PSCL2 PREFETCH  REQUESTED:          0  ISSUED:          0  USEFUL:          0  USELESS:          0
PSCL2 USEFUL LOAD PREFETCHES:          0 PREFETCH ISSUED TO LOWER LEVEL:          0  ACCURACY: -nan
PSCL2 TIMELY PREFETCHES:          0 LATE PREFETCHES: 0 DROPPED PREFETCHES: 0
PSCL2 PREFETCHES SAME FILL-ORIGIN LEVEL: 0 DIFFERENT FILL-ORIGIN LEVEL: 0

LLC TOTAL     ACCESS:    2602930  HIT:     788407  MISS:    1814523  HIT %:    30.2892  MISS %:    69.7108   MPKI: 9.07261
LLC LOAD      ACCESS:      52020  HIT:       4671  MISS:      47349  HIT %:    8.97924  MISS %:    91.0208   MPKI: 0.236745
LLC RFO       ACCESS:     421642  HIT:       6231  MISS:     415411  HIT %:    1.47779  MISS %:    98.5222   MPKI: 2.07705
LLC PREFETCH  ACCESS:    1351068  HIT:      29952  MISS:    1321116  HIT %:    2.21691  MISS %:    97.7831   MPKI: 6.60558
LLC WRITEBACK ACCESS:     773521  HIT:     747096  MISS:      26425  HIT %:    96.5838  MISS %:     3.4162   MPKI: 0.132125
LLC LOAD TRANSLATION ACCESS:       1617  HIT:         92  MISS:       1525  HIT %:    5.68955  MISS %:    94.3105   MPKI: 0.007625
LLC TRANSLATION FROM L1D PREFETCHER ACCESS:       3062  HIT:        365  MISS:       2697  HIT %:    11.9203  MISS %:    88.0797   MPKI: 0.013485
LLC PREFETCH  REQUESTED:          0  ISSUED:          0  USEFUL:      15467  USELESS:    5310186
LLC USEFUL LOAD PREFETCHES:      15467 PREFETCH ISSUED TO LOWER LEVEL:   90924162  ACCURACY: 0.0170109
LLC TIMELY PREFETCHES:      15467 LATE PREFETCHES: 0 DROPPED PREFETCHES: 0
LLC PREFETCHES SAME FILL-ORIGIN LEVEL: 0 DIFFERENT FILL-ORIGIN LEVEL: 0
LLC AVERAGE MISS LATENCY: 3533.95 cycles
LLC RQ	ACCESS:    1914043	FORWARD:          0	MERGED:          0	TO_CACHE:    1914042
LLC WQ	ACCESS:    3099231	FORWARD:          2	MERGED:          0	TO_CACHE:    3099231
LLC PQ	ACCESS:    5431352	FORWARD:          0	MERGED:          0	TO_CACHE:    5431351

LLC Dense regions hint to LLC: 0

RAW hits: 257068
Loads Generated: 67248886
Loads sent to L1D: 66991814
Stores Generated: 13414774
Stores sent to L1D: 13414773
Major fault: 0 Minor fault: 21337
Allocated PAGES: 85385

DRAM Statistics
 CHANNEL 0
 RQ ROW_BUFFER_HIT:    2424662  ROW_BUFFER_MISS:    4749013
 DBUS_CONGESTED:         35
 WQ ROW_BUFFER_HIT:     373185  ROW_BUFFER_MISS:    2699944  FULL:        234

 AVG_CONGESTED_CYCLE: 5
 All warmup complete: 5
Channel 0 Bank busy for read cycles: 0
Channel 0 Bank busy for write cycles: 0
Channel 0
Rank 0
0banks busy for read cycles: 30758
0banks busy for write cycles: 11
1banks busy for read cycles: 3578688
1banks busy for write cycles: 319174
2banks busy for read cycles: 7401256
2banks busy for write cycles: 320469
3banks busy for read cycles: 10097664
3banks busy for write cycles: 320309
4banks busy for read cycles: 10364552
4banks busy for write cycles: 320312
5banks busy for read cycles: 9845266
5banks busy for write cycles: 323748
6banks busy for read cycles: 10421736
6banks busy for write cycles: 432623
7banks busy for read cycles: 17905895
7banks busy for write cycles: 5513041
8banks busy for read cycles: 74906963
8banks busy for write cycles: 69586613

CPU 0 Branch Prediction Accuracy: 99.8415% MPKI: 0.0864474 Average ROB Occupancy at Mispredict: 157.143
Branch types
NOT_BRANCH: 190343428 94.5455%
BRANCH_DIRECT_JUMP: 64238 0.0319077%
BRANCH_INDIRECT: 0 0%
BRANCH_CONDITIONAL: 10916881 5.42253%
BRANCH_DIRECT_CALL: 38 1.8875e-05%
BRANCH_INDIRECT_CALL: 0 0%
BRANCH_RETURN: 38 1.8875e-05%
BRANCH_OTHER: 0 0%


CPU 1 Branch Prediction Accuracy: 99.8415% MPKI: 0.0864464 Average ROB Occupancy at Mispredict: 156.142
Branch types
NOT_BRANCH: 190071891 94.5464%
BRANCH_DIRECT_JUMP: 64151 0.0319103%
BRANCH_INDIRECT: 0 0%
BRANCH_CONDITIONAL: 10899643 5.42175%
BRANCH_DIRECT_CALL: 38 1.89021e-05%
BRANCH_INDIRECT_CALL: 0 0%
BRANCH_RETURN: 38 1.89021e-05%
BRANCH_OTHER: 0 0%


CPU 2 Branch Prediction Accuracy: 99.8414% MPKI: 0.0865214 Average ROB Occupancy at Mispredict: 156.386
Branch types
NOT_BRANCH: 189881934 94.5446%
BRANCH_DIRECT_JUMP: 64126 0.0319291%
BRANCH_INDIRECT: 0 0%
BRANCH_CONDITIONAL: 10892724 5.42362%
BRANCH_DIRECT_CALL: 38 1.89207e-05%
BRANCH_INDIRECT_CALL: 0 0%
BRANCH_RETURN: 38 1.89207e-05%
BRANCH_OTHER: 0 0%


CPU 3 Branch Prediction Accuracy: 99.8409% MPKI: 0.0868192 Average ROB Occupancy at Mispredict: 157.601
Branch types
NOT_BRANCH: 189087107 94.5436%
BRANCH_DIRECT_JUMP: 63917 0.0319585%
BRANCH_INDIRECT: 0 0%
BRANCH_CONDITIONAL: 10849000 5.4245%
BRANCH_DIRECT_CALL: 38 1.9e-05%
BRANCH_INDIRECT_CALL: 0 0%
BRANCH_RETURN: 38 1.9e-05%
BRANCH_OTHER: 0 0%

DRAM PAGES: 1048576
Allocated PAGES: 85385
