
*** ChampSim Multicore Out-of-Order Simulator ***

Warmup Instructions: 50000000
Simulation Instructions: 200000000
Number of CPUs: 4
LLC sets: 8192
LLC ways: 16
Off-chip DRAM Size: 4096 MB Channels: 1 Width: 64-bit Data Rate: 6400 MT/s
CPU 0 runs ./traces/ligra/ligra_Radii.com-lj.ungraph.gcc_6.3.0_O3.drop_25000M.length_250M.champsimtrace.xz
.xz
CPU 1 runs ./traces/ligra/ligra_Radii.com-lj.ungraph.gcc_6.3.0_O3.drop_25000M.length_250M.champsimtrace.xz
.xz
CPU 2 runs ./traces/ligra/ligra_Radii.com-lj.ungraph.gcc_6.3.0_O3.drop_25000M.length_250M.champsimtrace.xz
.xz
CPU 3 runs ./traces/ligra/ligra_Radii.com-lj.ungraph.gcc_6.3.0_O3.drop_25000M.length_250M.champsimtrace.xz
.xz
BTB has LRU replacement policy
ITLB has LRU replacement policy
DTLB has LRU replacement policy
STLB has LRU replacement policy
L1I has LRU replacement policy
History Sets: 8
History Ways: 16
BERTI Size: 16
BERTI Stride Size: 8
L1D has LRU replacement policy
Initialize SRRIP state for L2C
Initialize DRRIP state for LLC
BTB has LRU replacement policy
ITLB has LRU replacement policy
DTLB has LRU replacement policy
STLB has LRU replacement policy
L1I has LRU replacement policy
History Sets: 8
History Ways: 16
BERTI Size: 16
BERTI Stride Size: 8
L1D has LRU replacement policy
Initialize SRRIP state for L2C
Initialize DRRIP state for LLC
BTB has LRU replacement policy
ITLB has LRU replacement policy
DTLB has LRU replacement policy
STLB has LRU replacement policy
L1I has LRU replacement policy
History Sets: 8
History Ways: 16
BERTI Size: 16
BERTI Stride Size: 8
L1D has LRU replacement policy
Initialize SRRIP state for L2C
Initialize DRRIP state for LLC
BTB has LRU replacement policy
ITLB has LRU replacement policy
DTLB has LRU replacement policy
STLB has LRU replacement policy
L1I has LRU replacement policy
History Sets: 8
History Ways: 16
BERTI Size: 16
BERTI Stride Size: 8
L1D has LRU replacement policy
Initialize SRRIP state for L2C
Initialize DRRIP state for LLC
Heartbeat CPU 0 instructions: 10000003 cycles: 3199936 heartbeat IPC: 3.12506 cumulative IPC: 3.12506 (Simulation time: 0 hr 3 min 15 sec) 
Heartbeat CPU 1 instructions: 10000003 cycles: 3203826 heartbeat IPC: 3.12127 cumulative IPC: 3.12127 (Simulation time: 0 hr 3 min 15 sec) 
Heartbeat CPU 2 instructions: 10000003 cycles: 3206651 heartbeat IPC: 3.11852 cumulative IPC: 3.11852 (Simulation time: 0 hr 3 min 15 sec) 
Heartbeat CPU 3 instructions: 10000003 cycles: 3208291 heartbeat IPC: 3.11693 cumulative IPC: 3.11693 (Simulation time: 0 hr 3 min 15 sec) 
Heartbeat CPU 0 instructions: 20000000 cycles: 6289095 heartbeat IPC: 3.23713 cumulative IPC: 3.18011 (Simulation time: 0 hr 6 min 53 sec) 
Heartbeat CPU 1 instructions: 20000000 cycles: 6295633 heartbeat IPC: 3.23435 cumulative IPC: 3.17681 (Simulation time: 0 hr 6 min 53 sec) 
Heartbeat CPU 2 instructions: 20000000 cycles: 6301770 heartbeat IPC: 3.23089 cumulative IPC: 3.17371 (Simulation time: 0 hr 6 min 54 sec) 
Heartbeat CPU 3 instructions: 20000000 cycles: 6304509 heartbeat IPC: 3.22975 cumulative IPC: 3.17233 (Simulation time: 0 hr 6 min 54 sec) 
Heartbeat CPU 0 instructions: 30000002 cycles: 9323853 heartbeat IPC: 3.29516 cumulative IPC: 3.21755 (Simulation time: 0 hr 10 min 37 sec) 
Heartbeat CPU 1 instructions: 30000002 cycles: 9332409 heartbeat IPC: 3.29297 cumulative IPC: 3.2146 (Simulation time: 0 hr 10 min 38 sec) 
Heartbeat CPU 2 instructions: 30000002 cycles: 9339960 heartbeat IPC: 3.29143 cumulative IPC: 3.21201 (Simulation time: 0 hr 10 min 38 sec) 
Heartbeat CPU 3 instructions: 30000002 cycles: 9344047 heartbeat IPC: 3.28997 cumulative IPC: 3.2106 (Simulation time: 0 hr 10 min 39 sec) 
Heartbeat CPU 0 instructions: 40000001 cycles: 12552955 heartbeat IPC: 3.09684 cumulative IPC: 3.1865 (Simulation time: 0 hr 13 min 3 sec) 
Heartbeat CPU 1 instructions: 40000001 cycles: 12561532 heartbeat IPC: 3.09682 cumulative IPC: 3.18432 (Simulation time: 0 hr 13 min 3 sec) 
Heartbeat CPU 2 instructions: 40000001 cycles: 12569406 heartbeat IPC: 3.09651 cumulative IPC: 3.18233 (Simulation time: 0 hr 13 min 3 sec) 
Heartbeat CPU 3 instructions: 40000001 cycles: 12573491 heartbeat IPC: 3.09651 cumulative IPC: 3.1813 (Simulation time: 0 hr 13 min 4 sec) 
Heartbeat CPU 0 instructions: 50000002 cycles: 16638930 heartbeat IPC: 2.4474 cumulative IPC: 3.005 (Simulation time: 0 hr 16 min 19 sec) 
Heartbeat CPU 1 instructions: 50000002 cycles: 16659872 heartbeat IPC: 2.44001 cumulative IPC: 3.00122 (Simulation time: 0 hr 16 min 20 sec) 
Heartbeat CPU 2 instructions: 50000002 cycles: 16680232 heartbeat IPC: 2.4326 cumulative IPC: 2.99756 (Simulation time: 0 hr 16 min 22 sec) 
Heartbeat CPU 3 instructions: 50000002 cycles: 16695018 heartbeat IPC: 2.42629 cumulative IPC: 2.99491 (Simulation time: 0 hr 16 min 22 sec) 

Warmup complete CPU 0 instructions: 50114891 cycles: 16695018 (Simulation time: 0 hr 16 min 22 sec) 
Warmup complete CPU 1 instructions: 50073453 cycles: 16695018 (Simulation time: 0 hr 16 min 22 sec) 
Warmup complete CPU 2 instructions: 50030235 cycles: 16695018 (Simulation time: 0 hr 16 min 22 sec) 
Warmup complete CPU 3 instructions: 50000002 cycles: 16695018 (Simulation time: 0 hr 16 min 22 sec) 

Heartbeat CPU 0 instructions: 60000000 cycles: 103102894 heartbeat IPC: 0.115655 cumulative IPC: 0.114401 (Simulation time: 0 hr 22 min 56 sec) 
Heartbeat CPU 1 instructions: 60000000 cycles: 103466849 heartbeat IPC: 0.115198 cumulative IPC: 0.114398 (Simulation time: 0 hr 22 min 58 sec) 
Heartbeat CPU 2 instructions: 60000000 cycles: 104063120 heartbeat IPC: 0.114439 cumulative IPC: 0.114112 (Simulation time: 0 hr 23 min 0 sec) 
Heartbeat CPU 3 instructions: 60000000 cycles: 104154497 heartbeat IPC: 0.114339 cumulative IPC: 0.114339 (Simulation time: 0 hr 23 min 1 sec) 
Heartbeat CPU 0 instructions: 70000001 cycles: 177575710 heartbeat IPC: 0.134277 cumulative IPC: 0.123602 (Simulation time: 0 hr 28 min 57 sec) 
Heartbeat CPU 1 instructions: 70000001 cycles: 178098113 heartbeat IPC: 0.133992 cumulative IPC: 0.123458 (Simulation time: 0 hr 29 min 1 sec) 
Heartbeat CPU 3 instructions: 70000001 cycles: 178679127 heartbeat IPC: 0.134184 cumulative IPC: 0.123469 (Simulation time: 0 hr 29 min 5 sec) 
Heartbeat CPU 2 instructions: 70000001 cycles: 178748288 heartbeat IPC: 0.133895 cumulative IPC: 0.12323 (Simulation time: 0 hr 29 min 6 sec) 
Heartbeat CPU 0 instructions: 80000001 cycles: 260081573 heartbeat IPC: 0.121204 cumulative IPC: 0.122789 (Simulation time: 0 hr 39 min 51 sec) 
Heartbeat CPU 1 instructions: 80000001 cycles: 261708888 heartbeat IPC: 0.119602 cumulative IPC: 0.122142 (Simulation time: 0 hr 40 min 3 sec) 
Heartbeat CPU 2 instructions: 80000001 cycles: 262551177 heartbeat IPC: 0.119328 cumulative IPC: 0.1219 (Simulation time: 0 hr 40 min 8 sec) 
Heartbeat CPU 3 instructions: 80000001 cycles: 262933924 heartbeat IPC: 0.118688 cumulative IPC: 0.121833 (Simulation time: 0 hr 40 min 11 sec) 
Heartbeat CPU 0 instructions: 90000001 cycles: 333820349 heartbeat IPC: 0.135614 cumulative IPC: 0.125771 (Simulation time: 0 hr 46 min 18 sec) 
Heartbeat CPU 1 instructions: 90000001 cycles: 335793680 heartbeat IPC: 0.13498 cumulative IPC: 0.125123 (Simulation time: 0 hr 46 min 28 sec) 
Heartbeat CPU 2 instructions: 90000001 cycles: 336254309 heartbeat IPC: 0.135679 cumulative IPC: 0.125078 (Simulation time: 0 hr 46 min 30 sec) 
Heartbeat CPU 3 instructions: 90000001 cycles: 336505575 heartbeat IPC: 0.135922 cumulative IPC: 0.125074 (Simulation time: 0 hr 46 min 31 sec) 
Heartbeat CPU 0 instructions: 100000003 cycles: 411535006 heartbeat IPC: 0.128676 cumulative IPC: 0.126343 (Simulation time: 0 hr 52 min 20 sec) 
Heartbeat CPU 1 instructions: 100000003 cycles: 413573469 heartbeat IPC: 0.128568 cumulative IPC: 0.125798 (Simulation time: 0 hr 52 min 32 sec) 
Heartbeat CPU 2 instructions: 100000003 cycles: 414124364 heartbeat IPC: 0.128419 cumulative IPC: 0.125732 (Simulation time: 0 hr 52 min 35 sec) 
Heartbeat CPU 3 instructions: 100000003 cycles: 414361544 heartbeat IPC: 0.128442 cumulative IPC: 0.125733 (Simulation time: 0 hr 52 min 36 sec) 
Heartbeat CPU 0 instructions: 110000000 cycles: 491166746 heartbeat IPC: 0.125578 cumulative IPC: 0.126214 (Simulation time: 1 hr 2 min 45 sec) 
Heartbeat CPU 1 instructions: 110000000 cycles: 494279347 heartbeat IPC: 0.123907 cumulative IPC: 0.125478 (Simulation time: 1 hr 3 min 19 sec) 
Heartbeat CPU 2 instructions: 110000000 cycles: 494725958 heartbeat IPC: 0.124067 cumulative IPC: 0.125452 (Simulation time: 1 hr 3 min 25 sec) 
Heartbeat CPU 3 instructions: 110000000 cycles: 494983242 heartbeat IPC: 0.124036 cumulative IPC: 0.125447 (Simulation time: 1 hr 3 min 28 sec) 
Heartbeat CPU 0 instructions: 120000000 cycles: 566747977 heartbeat IPC: 0.132308 cumulative IPC: 0.127052 (Simulation time: 1 hr 9 min 35 sec) 
Heartbeat CPU 1 instructions: 120000000 cycles: 571549315 heartbeat IPC: 0.129416 cumulative IPC: 0.126027 (Simulation time: 1 hr 9 min 59 sec) 
Heartbeat CPU 2 instructions: 120000000 cycles: 571988210 heartbeat IPC: 0.129429 cumulative IPC: 0.126005 (Simulation time: 1 hr 10 min 1 sec) 
Heartbeat CPU 3 instructions: 120000000 cycles: 572393424 heartbeat IPC: 0.129182 cumulative IPC: 0.125968 (Simulation time: 1 hr 10 min 3 sec) 
Heartbeat CPU 0 instructions: 130000003 cycles: 623903272 heartbeat IPC: 0.174962 cumulative IPC: 0.131561 (Simulation time: 1 hr 14 min 51 sec) 
Heartbeat CPU 1 instructions: 130000002 cycles: 637192110 heartbeat IPC: 0.15234 cumulative IPC: 0.128811 (Simulation time: 1 hr 16 min 23 sec) 
Heartbeat CPU 2 instructions: 130000001 cycles: 638790135 heartbeat IPC: 0.149696 cumulative IPC: 0.128549 (Simulation time: 1 hr 16 min 33 sec) 
Heartbeat CPU 3 instructions: 130000000 cycles: 639911795 heartbeat IPC: 0.148108 cumulative IPC: 0.128366 (Simulation time: 1 hr 16 min 41 sec) 
Heartbeat CPU 0 instructions: 140000002 cycles: 724188602 heartbeat IPC: 0.0997155 cumulative IPC: 0.127047 (Simulation time: 1 hr 25 min 52 sec) 
Heartbeat CPU 1 instructions: 140000002 cycles: 729400588 heartbeat IPC: 0.10845 cumulative IPC: 0.126176 (Simulation time: 1 hr 26 min 17 sec) 
Heartbeat CPU 2 instructions: 140000002 cycles: 730240962 heartbeat IPC: 0.109348 cumulative IPC: 0.126088 (Simulation time: 1 hr 26 min 20 sec) 
Heartbeat CPU 3 instructions: 140000002 cycles: 730548013 heartbeat IPC: 0.110331 cumulative IPC: 0.126076 (Simulation time: 1 hr 26 min 21 sec) 
Heartbeat CPU 0 instructions: 150000002 cycles: 782832411 heartbeat IPC: 0.170521 cumulative IPC: 0.130375 (Simulation time: 1 hr 30 min 36 sec) 
Heartbeat CPU 1 instructions: 150000001 cycles: 790208299 heartbeat IPC: 0.164453 cumulative IPC: 0.129185 (Simulation time: 1 hr 31 min 49 sec) 
Heartbeat CPU 2 instructions: 150000002 cycles: 792557888 heartbeat IPC: 0.16047 cumulative IPC: 0.12885 (Simulation time: 1 hr 32 min 15 sec) 
Heartbeat CPU 3 instructions: 150000001 cycles: 793940735 heartbeat IPC: 0.157747 cumulative IPC: 0.128659 (Simulation time: 1 hr 32 min 26 sec) 
Heartbeat CPU 0 instructions: 160000001 cycles: 882040061 heartbeat IPC: 0.100799 cumulative IPC: 0.126984 (Simulation time: 1 hr 41 min 21 sec) 
Heartbeat CPU 1 instructions: 160000001 cycles: 886699415 heartbeat IPC: 0.103636 cumulative IPC: 0.126352 (Simulation time: 1 hr 41 min 40 sec) 
Heartbeat CPU 2 instructions: 160000001 cycles: 888141013 heartbeat IPC: 0.104621 cumulative IPC: 0.126192 (Simulation time: 1 hr 41 min 46 sec) 
Heartbeat CPU 3 instructions: 160000000 cycles: 888475015 heartbeat IPC: 0.105782 cumulative IPC: 0.126179 (Simulation time: 1 hr 41 min 47 sec) 
Heartbeat CPU 0 instructions: 170000000 cycles: 959096709 heartbeat IPC: 0.129775 cumulative IPC: 0.127212 (Simulation time: 1 hr 49 min 17 sec) 
Heartbeat CPU 1 instructions: 170000002 cycles: 964666405 heartbeat IPC: 0.128259 cumulative IPC: 0.126509 (Simulation time: 1 hr 50 min 5 sec) 
Heartbeat CPU 2 instructions: 170000002 cycles: 966340364 heartbeat IPC: 0.127878 cumulative IPC: 0.126331 (Simulation time: 1 hr 50 min 27 sec) 
Heartbeat CPU 3 instructions: 170000002 cycles: 966564218 heartbeat IPC: 0.128059 cumulative IPC: 0.126333 (Simulation time: 1 hr 50 min 31 sec) 
Heartbeat CPU 0 instructions: 180000000 cycles: 1032939324 heartbeat IPC: 0.135423 cumulative IPC: 0.127809 (Simulation time: 1 hr 56 min 8 sec) 
Heartbeat CPU 1 instructions: 180000000 cycles: 1036724328 heartbeat IPC: 0.138777 cumulative IPC: 0.127375 (Simulation time: 1 hr 56 min 39 sec) 
Heartbeat CPU 2 instructions: 180000000 cycles: 1040788171 heartbeat IPC: 0.134322 cumulative IPC: 0.126912 (Simulation time: 1 hr 57 min 14 sec) 
Heartbeat CPU 3 instructions: 180000000 cycles: 1041551603 heartbeat IPC: 0.133356 cumulative IPC: 0.126847 (Simulation time: 1 hr 57 min 21 sec) 
Heartbeat CPU 0 instructions: 190000000 cycles: 1117133888 heartbeat IPC: 0.118773 cumulative IPC: 0.127118 (Simulation time: 2 hr 5 min 39 sec) 
Heartbeat CPU 1 instructions: 190000000 cycles: 1119908902 heartbeat IPC: 0.120215 cumulative IPC: 0.126835 (Simulation time: 2 hr 5 min 53 sec) 
Heartbeat CPU 2 instructions: 190000000 cycles: 1122790664 heartbeat IPC: 0.121948 cumulative IPC: 0.126544 (Simulation time: 2 hr 6 min 6 sec) 
Heartbeat CPU 3 instructions: 190000000 cycles: 1123277918 heartbeat IPC: 0.12236 cumulative IPC: 0.126516 (Simulation time: 2 hr 6 min 9 sec) 
Heartbeat CPU 0 instructions: 200000000 cycles: 1192638809 heartbeat IPC: 0.132442 cumulative IPC: 0.127459 (Simulation time: 2 hr 13 min 39 sec) 
Heartbeat CPU 1 instructions: 200000000 cycles: 1194744514 heartbeat IPC: 0.133626 cumulative IPC: 0.127267 (Simulation time: 2 hr 13 min 57 sec) 
Heartbeat CPU 2 instructions: 200000000 cycles: 1198176701 heartbeat IPC: 0.132651 cumulative IPC: 0.126934 (Simulation time: 2 hr 14 min 21 sec) 
Heartbeat CPU 3 instructions: 200000000 cycles: 1198628764 heartbeat IPC: 0.132713 cumulative IPC: 0.126911 (Simulation time: 2 hr 14 min 29 sec) 
Heartbeat CPU 0 instructions: 210000002 cycles: 1265748240 heartbeat IPC: 0.136781 cumulative IPC: 0.128005 (Simulation time: 2 hr 21 min 26 sec) 
Heartbeat CPU 1 instructions: 210000002 cycles: 1267423506 heartbeat IPC: 0.137591 cumulative IPC: 0.127867 (Simulation time: 2 hr 21 min 33 sec) 
Heartbeat CPU 2 instructions: 210000002 cycles: 1270527631 heartbeat IPC: 0.138215 cumulative IPC: 0.127585 (Simulation time: 2 hr 21 min 50 sec) 
Heartbeat CPU 3 instructions: 210000002 cycles: 1270758934 heartbeat IPC: 0.138638 cumulative IPC: 0.127585 (Simulation time: 2 hr 21 min 52 sec) 
Heartbeat CPU 0 instructions: 220000000 cycles: 1344894602 heartbeat IPC: 0.126348 cumulative IPC: 0.127906 (Simulation time: 2 hr 29 min 40 sec) 
Heartbeat CPU 1 instructions: 220000000 cycles: 1345704832 heartbeat IPC: 0.127744 cumulative IPC: 0.12786 (Simulation time: 2 hr 29 min 43 sec) 
Heartbeat CPU 2 instructions: 220000000 cycles: 1348311003 heartbeat IPC: 0.128562 cumulative IPC: 0.127642 (Simulation time: 2 hr 29 min 53 sec) 
Heartbeat CPU 3 instructions: 220000000 cycles: 1348584660 heartbeat IPC: 0.128492 cumulative IPC: 0.127638 (Simulation time: 2 hr 29 min 54 sec) 
Heartbeat CPU 0 instructions: 230000000 cycles: 1421594243 heartbeat IPC: 0.130379 cumulative IPC: 0.128041 (Simulation time: 2 hr 37 min 3 sec) 
Heartbeat CPU 1 instructions: 230000000 cycles: 1422373827 heartbeat IPC: 0.130431 cumulative IPC: 0.128 (Simulation time: 2 hr 37 min 7 sec) 
Heartbeat CPU 2 instructions: 230000003 cycles: 1426524755 heartbeat IPC: 0.127855 cumulative IPC: 0.127654 (Simulation time: 2 hr 37 min 34 sec) 
Heartbeat CPU 3 instructions: 230000001 cycles: 1426793797 heartbeat IPC: 0.127862 cumulative IPC: 0.127651 (Simulation time: 2 hr 37 min 36 sec) 
Heartbeat CPU 0 instructions: 240000001 cycles: 1480893616 heartbeat IPC: 0.168636 cumulative IPC: 0.129685 (Simulation time: 2 hr 43 min 28 sec) 
Heartbeat CPU 1 instructions: 240000001 cycles: 1481258977 heartbeat IPC: 0.169822 cumulative IPC: 0.129681 (Simulation time: 2 hr 43 min 32 sec) 
Heartbeat CPU 2 instructions: 240000001 cycles: 1489843058 heartbeat IPC: 0.157932 cumulative IPC: 0.128955 (Simulation time: 2 hr 45 min 32 sec) 
Heartbeat CPU 3 instructions: 240000001 cycles: 1490227742 heartbeat IPC: 0.157644 cumulative IPC: 0.128942 (Simulation time: 2 hr 45 min 38 sec) 
*** Reached end of trace for Core: 0 Repeating trace: ./traces/ligra/ligra_Radii.com-lj.ungraph.gcc_6.3.0_O3.drop_25000M.length_250M.champsimtrace.xz
Heartbeat CPU 0 instructions: 250000000 cycles: 1637747765 heartbeat IPC: 0.0637535 cumulative IPC: 0.123306 (Simulation time: 3 hr 38 min 55 sec) 
Finished CPU 0 instructions: 200000002 cycles: 1622327689 cumulative IPC: 0.12328 (Simulation time: 3 hr 39 min 10 sec) 
*** Reached end of trace for Core: 1 Repeating trace: ./traces/ligra/ligra_Radii.com-lj.ungraph.gcc_6.3.0_O3.drop_25000M.length_250M.champsimtrace.xz
Heartbeat CPU 1 instructions: 250000000 cycles: 1640376238 heartbeat IPC: 0.0628467 cumulative IPC: 0.123132 (Simulation time: 3 hr 39 min 25 sec) 
Finished CPU 1 instructions: 200000001 cycles: 1624973184 cumulative IPC: 0.123079 (Simulation time: 3 hr 39 min 38 sec) 
*** Reached end of trace for Core: 2 Repeating trace: ./traces/ligra/ligra_Radii.com-lj.ungraph.gcc_6.3.0_O3.drop_25000M.length_250M.champsimtrace.xz
Heartbeat CPU 2 instructions: 250000000 cycles: 1654349674 heartbeat IPC: 0.0607878 cumulative IPC: 0.122107 (Simulation time: 3 hr 41 min 56 sec) 
Finished CPU 2 instructions: 200000002 cycles: 1637905499 cumulative IPC: 0.122107 (Simulation time: 3 hr 42 min 0 sec) 
*** Reached end of trace for Core: 3 Repeating trace: ./traces/ligra/ligra_Radii.com-lj.ungraph.gcc_6.3.0_O3.drop_25000M.length_250M.champsimtrace.xz
Heartbeat CPU 3 instructions: 250000000 cycles: 1654688304 heartbeat IPC: 0.0608048 cumulative IPC: 0.122101 (Simulation time: 3 hr 42 min 1 sec) 
Finished CPU 3 instructions: 200000003 cycles: 1637994643 cumulative IPC: 0.122101 (Simulation time: 3 hr 42 min 1 sec) 

ChampSim completed all CPUs

Total Simulation Statistics (not including warmup)

CPU 0 cumulative IPC: 0.123581 instructions: 202424246 cycles: 1637994643
ITLB TOTAL     ACCESS:   38402700  HIT:   38402685  MISS:         15  HIT %:        100  MISS %: 3.90598e-05   MPKI: 7.41018e-05
ITLB LOAD      ACCESS:          0  HIT:          0  MISS:          0  HIT %:       -nan  MISS %:       -nan   MPKI: 0
ITLB RFO       ACCESS:          0  HIT:          0  MISS:          0  HIT %:       -nan  MISS %:       -nan   MPKI: 0
ITLB PREFETCH  ACCESS:          0  HIT:          0  MISS:          0  HIT %:       -nan  MISS %:       -nan   MPKI: 0
ITLB WRITEBACK ACCESS:          0  HIT:          0  MISS:          0  HIT %:       -nan  MISS %:       -nan   MPKI: 0
DTLB TOTAL     ACCESS:   49774429  HIT:   44851605  MISS:    4922824  HIT %:    90.1097  MISS %:    9.89027   MPKI: 24.3193
DTLB LOAD      ACCESS:          0  HIT:          0  MISS:          0  HIT %:       -nan  MISS %:       -nan   MPKI: 0
DTLB RFO       ACCESS:          0  HIT:          0  MISS:          0  HIT %:       -nan  MISS %:       -nan   MPKI: 0
DTLB PREFETCH  ACCESS:          0  HIT:          0  MISS:          0  HIT %:       -nan  MISS %:       -nan   MPKI: 0
DTLB WRITEBACK ACCESS:          0  HIT:          0  MISS:          0  HIT %:       -nan  MISS %:       -nan   MPKI: 0
STLB TOTAL     ACCESS:   14768410  HIT:   10736440  MISS:    4031970  HIT %:    72.6987  MISS %:    27.3013   MPKI: 19.9184
STLB LOAD      ACCESS:          0  HIT:          0  MISS:          0  HIT %:       -nan  MISS %:       -nan   MPKI: 0
STLB RFO       ACCESS:          0  HIT:          0  MISS:          0  HIT %:       -nan  MISS %:       -nan   MPKI: 0
STLB PREFETCH  ACCESS:          0  HIT:          0  MISS:          0  HIT %:       -nan  MISS %:       -nan   MPKI: 0
STLB WRITEBACK ACCESS:          0  HIT:          0  MISS:          0  HIT %:       -nan  MISS %:       -nan   MPKI: 0
L1D TOTAL     ACCESS:   77982392  HIT:   67951568  MISS:   10030824  HIT %:    87.1371  MISS %:    12.8629   MPKI: 49.5535
L1D LOAD      ACCESS:   31914907  HIT:   25808716  MISS:    6106191  HIT %:    80.8673  MISS %:    19.1327   MPKI: 30.1653
L1D RFO       ACCESS:   14253773  HIT:   11609542  MISS:    2644231  HIT %:    81.4489  MISS %:    18.5511   MPKI: 13.0628
L1D PREFETCH  ACCESS:   31813712  HIT:   30533310  MISS:    1280402  HIT %:    95.9753  MISS %:    4.02469   MPKI: 6.32534
L1D WRITEBACK ACCESS:          0  HIT:          0  MISS:          0  HIT %:       -nan  MISS %:       -nan   MPKI: 0
L1I TOTAL     ACCESS:   42440328  HIT:   42440220  MISS:        108  HIT %:    99.9997  MISS %: 0.000254475   MPKI: 0.000533533
L1I LOAD      ACCESS:   42440328  HIT:   42440220  MISS:        108  HIT %:    99.9997  MISS %: 0.000254475   MPKI: 0.000533533
L1I RFO       ACCESS:          0  HIT:          0  MISS:          0  HIT %:       -nan  MISS %:       -nan   MPKI: 0
L1I PREFETCH  ACCESS:          0  HIT:          0  MISS:          0  HIT %:       -nan  MISS %:       -nan   MPKI: 0
L1I WRITEBACK ACCESS:          0  HIT:          0  MISS:          0  HIT %:       -nan  MISS %:       -nan   MPKI: 0
L2C TOTAL     ACCESS:   24275927  HIT:   12641429  MISS:   11634498  HIT %:    52.0739  MISS %:    47.9261   MPKI: 57.4758
L2C LOAD      ACCESS:    6082493  HIT:     227855  MISS:    5854638  HIT %:    3.74608  MISS %:    96.2539   MPKI: 28.9226
L2C RFO       ACCESS:    2644229  HIT:      18832  MISS:    2625397  HIT %:   0.712192  MISS %:    99.2878   MPKI: 12.9698
L2C PREFETCH  ACCESS:    6982245  HIT:    5440304  MISS:    1541941  HIT %:    77.9163  MISS %:    22.0837   MPKI: 7.61737
L2C WRITEBACK ACCESS:    4226657  HIT:    3772000  MISS:     454657  HIT %:    89.2431  MISS %:    10.7569   MPKI: 2.24606
PSCL5 TOTAL     ACCESS:    4034741  HIT:    4034741  MISS:          0  HIT %:        100  MISS %:          0   MPKI: 0
PSCL5 LOAD      ACCESS:          0  HIT:          0  MISS:          0  HIT %:       -nan  MISS %:       -nan   MPKI: 0
PSCL5 RFO       ACCESS:          0  HIT:          0  MISS:          0  HIT %:       -nan  MISS %:       -nan   MPKI: 0
PSCL5 PREFETCH  ACCESS:          0  HIT:          0  MISS:          0  HIT %:       -nan  MISS %:       -nan   MPKI: 0
PSCL5 WRITEBACK ACCESS:          0  HIT:          0  MISS:          0  HIT %:       -nan  MISS %:       -nan   MPKI: 0
PSCL4 TOTAL     ACCESS:    4034741  HIT:    4034741  MISS:          0  HIT %:        100  MISS %:          0   MPKI: 0
PSCL4 LOAD      ACCESS:          0  HIT:          0  MISS:          0  HIT %:       -nan  MISS %:       -nan   MPKI: 0
PSCL4 RFO       ACCESS:          0  HIT:          0  MISS:          0  HIT %:       -nan  MISS %:       -nan   MPKI: 0
PSCL4 PREFETCH  ACCESS:          0  HIT:          0  MISS:          0  HIT %:       -nan  MISS %:       -nan   MPKI: 0
PSCL4 WRITEBACK ACCESS:          0  HIT:          0  MISS:          0  HIT %:       -nan  MISS %:       -nan   MPKI: 0
PSCL3 TOTAL     ACCESS:    4034741  HIT:    4034741  MISS:          0  HIT %:        100  MISS %:          0   MPKI: 0
PSCL3 LOAD      ACCESS:          0  HIT:          0  MISS:          0  HIT %:       -nan  MISS %:       -nan   MPKI: 0
PSCL3 RFO       ACCESS:          0  HIT:          0  MISS:          0  HIT %:       -nan  MISS %:       -nan   MPKI: 0
PSCL3 PREFETCH  ACCESS:          0  HIT:          0  MISS:          0  HIT %:       -nan  MISS %:       -nan   MPKI: 0
PSCL3 WRITEBACK ACCESS:          0  HIT:          0  MISS:          0  HIT %:       -nan  MISS %:       -nan   MPKI: 0
PSCL2 TOTAL     ACCESS:    4034672  HIT:    3729171  MISS:     305501  HIT %:    92.4281  MISS %:    7.57189   MPKI: 1.50921
PSCL2 LOAD      ACCESS:          0  HIT:          0  MISS:          0  HIT %:       -nan  MISS %:       -nan   MPKI: 0
PSCL2 RFO       ACCESS:          0  HIT:          0  MISS:          0  HIT %:       -nan  MISS %:       -nan   MPKI: 0
PSCL2 PREFETCH  ACCESS:          0  HIT:          0  MISS:          0  HIT %:       -nan  MISS %:       -nan   MPKI: 0
PSCL2 WRITEBACK ACCESS:          0  HIT:          0  MISS:          0  HIT %:       -nan  MISS %:       -nan   MPKI: 0
LLC TOTAL     ACCESS:   15372856  HIT:    5596063  MISS:    9776793  HIT %:    36.4022  MISS %:    63.5978   MPKI: 48.2985
LLC LOAD      ACCESS:    5825617  HIT:     230339  MISS:    5595278  HIT %:     3.9539  MISS %:    96.0461   MPKI: 27.6413
LLC RFO       ACCESS:    2625396  HIT:      66753  MISS:    2558643  HIT %:    2.54259  MISS %:    97.4574   MPKI: 12.64
LLC PREFETCH  ACCESS:    1570960  HIT:     247963  MISS:    1322997  HIT %:    15.7842  MISS %:    84.2158   MPKI: 6.53576
LLC WRITEBACK ACCESS:    4193018  HIT:    4009615  MISS:     183403  HIT %:     95.626  MISS %:    4.37401   MPKI: 0.906033

RAW hits: 6158201
Loads Generated: 57640580
Loads sent to L1D: 51482378
Stores Generated: 25158632
Stores sent to L1D: 25158635

CPU 1 cumulative IPC: 0.123233 instructions: 201854913 cycles: 1637994643
ITLB TOTAL     ACCESS:   38194068  HIT:   38194053  MISS:         15  HIT %:        100  MISS %: 3.92731e-05   MPKI: 7.43108e-05
ITLB LOAD      ACCESS:          0  HIT:          0  MISS:          0  HIT %:       -nan  MISS %:       -nan   MPKI: 0
ITLB RFO       ACCESS:          0  HIT:          0  MISS:          0  HIT %:       -nan  MISS %:       -nan   MPKI: 0
ITLB PREFETCH  ACCESS:          0  HIT:          0  MISS:          0  HIT %:       -nan  MISS %:       -nan   MPKI: 0
ITLB WRITEBACK ACCESS:          0  HIT:          0  MISS:          0  HIT %:       -nan  MISS %:       -nan   MPKI: 0
DTLB TOTAL     ACCESS:   49634081  HIT:   44709864  MISS:    4924217  HIT %:     90.079  MISS %:    9.92104   MPKI: 24.3948
DTLB LOAD      ACCESS:          0  HIT:          0  MISS:          0  HIT %:       -nan  MISS %:       -nan   MPKI: 0
DTLB RFO       ACCESS:          0  HIT:          0  MISS:          0  HIT %:       -nan  MISS %:       -nan   MPKI: 0
DTLB PREFETCH  ACCESS:          0  HIT:          0  MISS:          0  HIT %:       -nan  MISS %:       -nan   MPKI: 0
DTLB WRITEBACK ACCESS:          0  HIT:          0  MISS:          0  HIT %:       -nan  MISS %:       -nan   MPKI: 0
STLB TOTAL     ACCESS:   14538104  HIT:   10505106  MISS:    4032998  HIT %:    72.2591  MISS %:    27.7409   MPKI: 19.9797
STLB LOAD      ACCESS:          0  HIT:          0  MISS:          0  HIT %:       -nan  MISS %:       -nan   MPKI: 0
STLB RFO       ACCESS:          0  HIT:          0  MISS:          0  HIT %:       -nan  MISS %:       -nan   MPKI: 0
STLB PREFETCH  ACCESS:          0  HIT:          0  MISS:          0  HIT %:       -nan  MISS %:       -nan   MPKI: 0
STLB WRITEBACK ACCESS:          0  HIT:          0  MISS:          0  HIT %:       -nan  MISS %:       -nan   MPKI: 0
L1D TOTAL     ACCESS:   75151156  HIT:   65126854  MISS:   10024302  HIT %:    86.6611  MISS %:    13.3389   MPKI: 49.6609
L1D LOAD      ACCESS:   31716677  HIT:   25574803  MISS:    6141874  HIT %:    80.6352  MISS %:    19.3648   MPKI: 30.4272
L1D RFO       ACCESS:   14307199  HIT:   11662912  MISS:    2644287  HIT %:    81.5178  MISS %:    18.4822   MPKI: 13.0999
L1D PREFETCH  ACCESS:   29127280  HIT:   27889139  MISS:    1238141  HIT %:    95.7492  MISS %:     4.2508   MPKI: 6.13382
L1D WRITEBACK ACCESS:          0  HIT:          0  MISS:          0  HIT %:       -nan  MISS %:       -nan   MPKI: 0
L1I TOTAL     ACCESS:   42218940  HIT:   42218832  MISS:        108  HIT %:    99.9997  MISS %: 0.000255809   MPKI: 0.000535038
L1I LOAD      ACCESS:   42218940  HIT:   42218832  MISS:        108  HIT %:    99.9997  MISS %: 0.000255809   MPKI: 0.000535038
L1I RFO       ACCESS:          0  HIT:          0  MISS:          0  HIT %:       -nan  MISS %:       -nan   MPKI: 0
L1I PREFETCH  ACCESS:          0  HIT:          0  MISS:          0  HIT %:       -nan  MISS %:       -nan   MPKI: 0
L1I WRITEBACK ACCESS:          0  HIT:          0  MISS:          0  HIT %:       -nan  MISS %:       -nan   MPKI: 0
L2C TOTAL     ACCESS:   24597617  HIT:   12917458  MISS:   11680159  HIT %:    52.5151  MISS %:    47.4849   MPKI: 57.8641
L2C LOAD      ACCESS:    6117334  HIT:     249838  MISS:    5867496  HIT %:     4.0841  MISS %:    95.9159   MPKI: 29.0679
L2C RFO       ACCESS:    2644279  HIT:      18359  MISS:    2625920  HIT %:   0.694291  MISS %:    99.3057   MPKI: 13.0089
L2C PREFETCH  ACCESS:    7267325  HIT:    5738185  MISS:    1529140  HIT %:    78.9587  MISS %:    21.0413   MPKI: 7.57544
L2C WRITEBACK ACCESS:    4227142  HIT:    3762929  MISS:     464213  HIT %:    89.0183  MISS %:    10.9817   MPKI: 2.29974
PSCL5 TOTAL     ACCESS:    4035484  HIT:    4035484  MISS:          0  HIT %:        100  MISS %:          0   MPKI: 0
PSCL5 LOAD      ACCESS:          0  HIT:          0  MISS:          0  HIT %:       -nan  MISS %:       -nan   MPKI: 0
PSCL5 RFO       ACCESS:          0  HIT:          0  MISS:          0  HIT %:       -nan  MISS %:       -nan   MPKI: 0
PSCL5 PREFETCH  ACCESS:          0  HIT:          0  MISS:          0  HIT %:       -nan  MISS %:       -nan   MPKI: 0
PSCL5 WRITEBACK ACCESS:          0  HIT:          0  MISS:          0  HIT %:       -nan  MISS %:       -nan   MPKI: 0
PSCL4 TOTAL     ACCESS:    4035484  HIT:    4035484  MISS:          0  HIT %:        100  MISS %:          0   MPKI: 0
PSCL4 LOAD      ACCESS:          0  HIT:          0  MISS:          0  HIT %:       -nan  MISS %:       -nan   MPKI: 0
PSCL4 RFO       ACCESS:          0  HIT:          0  MISS:          0  HIT %:       -nan  MISS %:       -nan   MPKI: 0
PSCL4 PREFETCH  ACCESS:          0  HIT:          0  MISS:          0  HIT %:       -nan  MISS %:       -nan   MPKI: 0
PSCL4 WRITEBACK ACCESS:          0  HIT:          0  MISS:          0  HIT %:       -nan  MISS %:       -nan   MPKI: 0
PSCL3 TOTAL     ACCESS:    4035484  HIT:    4035484  MISS:          0  HIT %:        100  MISS %:          0   MPKI: 0
PSCL3 LOAD      ACCESS:          0  HIT:          0  MISS:          0  HIT %:       -nan  MISS %:       -nan   MPKI: 0
PSCL3 RFO       ACCESS:          0  HIT:          0  MISS:          0  HIT %:       -nan  MISS %:       -nan   MPKI: 0
PSCL3 PREFETCH  ACCESS:          0  HIT:          0  MISS:          0  HIT %:       -nan  MISS %:       -nan   MPKI: 0
PSCL3 WRITEBACK ACCESS:          0  HIT:          0  MISS:          0  HIT %:       -nan  MISS %:       -nan   MPKI: 0
PSCL2 TOTAL     ACCESS:    4035475  HIT:    3729423  MISS:     306052  HIT %:     92.416  MISS %:    7.58404   MPKI: 1.5162
PSCL2 LOAD      ACCESS:          0  HIT:          0  MISS:          0  HIT %:       -nan  MISS %:       -nan   MPKI: 0
PSCL2 RFO       ACCESS:          0  HIT:          0  MISS:          0  HIT %:       -nan  MISS %:       -nan   MPKI: 0
PSCL2 PREFETCH  ACCESS:          0  HIT:          0  MISS:          0  HIT %:       -nan  MISS %:       -nan   MPKI: 0
PSCL2 WRITEBACK ACCESS:          0  HIT:          0  MISS:          0  HIT %:       -nan  MISS %:       -nan   MPKI: 0
LLC TOTAL     ACCESS:   15410261  HIT:    5606945  MISS:    9803316  HIT %:    36.3845  MISS %:    63.6155   MPKI: 48.5662
LLC LOAD      ACCESS:    5828564  HIT:     223283  MISS:    5605281  HIT %:    3.83084  MISS %:    96.1692   MPKI: 27.7689
LLC RFO       ACCESS:    2625919  HIT:      61789  MISS:    2564130  HIT %:    2.35304  MISS %:     97.647   MPKI: 12.7028
LLC PREFETCH  ACCESS:    1568071  HIT:     229121  MISS:    1338950  HIT %:    14.6116  MISS %:    85.3884   MPKI: 6.63323
LLC WRITEBACK ACCESS:    4194317  HIT:    4013409  MISS:     180908  HIT %:    95.6868  MISS %:    4.31317   MPKI: 0.896228

RAW hits: 6159905
Loads Generated: 57531920
Loads sent to L1D: 51372015
Stores Generated: 25161524
Stores sent to L1D: 25161524

CPU 2 cumulative IPC: 0.122109 instructions: 200013508 cycles: 1637994643
ITLB TOTAL     ACCESS:   37797354  HIT:   37797339  MISS:         15  HIT %:        100  MISS %: 3.96853e-05   MPKI: 7.49949e-05
ITLB LOAD      ACCESS:          0  HIT:          0  MISS:          0  HIT %:       -nan  MISS %:       -nan   MPKI: 0
ITLB RFO       ACCESS:          0  HIT:          0  MISS:          0  HIT %:       -nan  MISS %:       -nan   MPKI: 0
ITLB PREFETCH  ACCESS:          0  HIT:          0  MISS:          0  HIT %:       -nan  MISS %:       -nan   MPKI: 0
ITLB WRITEBACK ACCESS:          0  HIT:          0  MISS:          0  HIT %:       -nan  MISS %:       -nan   MPKI: 0
DTLB TOTAL     ACCESS:   49247684  HIT:   44359799  MISS:    4887885  HIT %:    90.0749  MISS %:    9.92511   MPKI: 24.4378
DTLB LOAD      ACCESS:          0  HIT:          0  MISS:          0  HIT %:       -nan  MISS %:       -nan   MPKI: 0
DTLB RFO       ACCESS:          0  HIT:          0  MISS:          0  HIT %:       -nan  MISS %:       -nan   MPKI: 0
DTLB PREFETCH  ACCESS:          0  HIT:          0  MISS:          0  HIT %:       -nan  MISS %:       -nan   MPKI: 0
DTLB WRITEBACK ACCESS:          0  HIT:          0  MISS:          0  HIT %:       -nan  MISS %:       -nan   MPKI: 0
STLB TOTAL     ACCESS:   14341312  HIT:   10336777  MISS:    4004535  HIT %:    72.0769  MISS %:    27.9231   MPKI: 20.0213
STLB LOAD      ACCESS:          0  HIT:          0  MISS:          0  HIT %:       -nan  MISS %:       -nan   MPKI: 0
STLB RFO       ACCESS:          0  HIT:          0  MISS:          0  HIT %:       -nan  MISS %:       -nan   MPKI: 0
STLB PREFETCH  ACCESS:          0  HIT:          0  MISS:          0  HIT %:       -nan  MISS %:       -nan   MPKI: 0
STLB WRITEBACK ACCESS:          0  HIT:          0  MISS:          0  HIT %:       -nan  MISS %:       -nan   MPKI: 0
L1D TOTAL     ACCESS:   73822720  HIT:   63932553  MISS:    9890167  HIT %:    86.6028  MISS %:    13.3972   MPKI: 49.4475
L1D LOAD      ACCESS:   31470316  HIT:   25395601  MISS:    6074715  HIT %:     80.697  MISS %:     19.303   MPKI: 30.3715
L1D RFO       ACCESS:   14387611  HIT:   11779074  MISS:    2608537  HIT %:    81.8696  MISS %:    18.1304   MPKI: 13.0418
L1D PREFETCH  ACCESS:   27964793  HIT:   26757878  MISS:    1206915  HIT %:    95.6842  MISS %:    4.31584   MPKI: 6.03417
L1D WRITEBACK ACCESS:          0  HIT:          0  MISS:          0  HIT %:       -nan  MISS %:       -nan   MPKI: 0
L1I TOTAL     ACCESS:   41750382  HIT:   41750274  MISS:        108  HIT %:    99.9997  MISS %: 0.00025868   MPKI: 0.000539964
L1I LOAD      ACCESS:   41750382  HIT:   41750274  MISS:        108  HIT %:    99.9997  MISS %: 0.00025868   MPKI: 0.000539964
L1I RFO       ACCESS:          0  HIT:          0  MISS:          0  HIT %:       -nan  MISS %:       -nan   MPKI: 0
L1I PREFETCH  ACCESS:          0  HIT:          0  MISS:          0  HIT %:       -nan  MISS %:       -nan   MPKI: 0
L1I WRITEBACK ACCESS:          0  HIT:          0  MISS:          0  HIT %:       -nan  MISS %:       -nan   MPKI: 0
L2C TOTAL     ACCESS:   24454120  HIT:   12862837  MISS:   11591283  HIT %:    52.5999  MISS %:    47.4001   MPKI: 57.9525
L2C LOAD      ACCESS:    6050501  HIT:     253351  MISS:    5797150  HIT %:    4.18727  MISS %:    95.8127   MPKI: 28.9838
L2C RFO       ACCESS:    2608534  HIT:      18247  MISS:    2590287  HIT %:   0.699512  MISS %:    99.3005   MPKI: 12.9506
L2C PREFETCH  ACCESS:    7290542  HIT:    5789207  MISS:    1501335  HIT %:    79.4071  MISS %:    20.5929   MPKI: 7.50617
L2C WRITEBACK ACCESS:    4191504  HIT:    3718312  MISS:     473192  HIT %:    88.7107  MISS %:    11.2893   MPKI: 2.3658
PSCL5 TOTAL     ACCESS:    4006985  HIT:    4006985  MISS:          0  HIT %:        100  MISS %:          0   MPKI: 0
PSCL5 LOAD      ACCESS:          0  HIT:          0  MISS:          0  HIT %:       -nan  MISS %:       -nan   MPKI: 0
PSCL5 RFO       ACCESS:          0  HIT:          0  MISS:          0  HIT %:       -nan  MISS %:       -nan   MPKI: 0
PSCL5 PREFETCH  ACCESS:          0  HIT:          0  MISS:          0  HIT %:       -nan  MISS %:       -nan   MPKI: 0
PSCL5 WRITEBACK ACCESS:          0  HIT:          0  MISS:          0  HIT %:       -nan  MISS %:       -nan   MPKI: 0
PSCL4 TOTAL     ACCESS:    4006985  HIT:    4006985  MISS:          0  HIT %:        100  MISS %:          0   MPKI: 0
PSCL4 LOAD      ACCESS:          0  HIT:          0  MISS:          0  HIT %:       -nan  MISS %:       -nan   MPKI: 0
PSCL4 RFO       ACCESS:          0  HIT:          0  MISS:          0  HIT %:       -nan  MISS %:       -nan   MPKI: 0
PSCL4 PREFETCH  ACCESS:          0  HIT:          0  MISS:          0  HIT %:       -nan  MISS %:       -nan   MPKI: 0
PSCL4 WRITEBACK ACCESS:          0  HIT:          0  MISS:          0  HIT %:       -nan  MISS %:       -nan   MPKI: 0
PSCL3 TOTAL     ACCESS:    4006985  HIT:    4006985  MISS:          0  HIT %:        100  MISS %:          0   MPKI: 0
PSCL3 LOAD      ACCESS:          0  HIT:          0  MISS:          0  HIT %:       -nan  MISS %:       -nan   MPKI: 0
PSCL3 RFO       ACCESS:          0  HIT:          0  MISS:          0  HIT %:       -nan  MISS %:       -nan   MPKI: 0
PSCL3 PREFETCH  ACCESS:          0  HIT:          0  MISS:          0  HIT %:       -nan  MISS %:       -nan   MPKI: 0
PSCL3 WRITEBACK ACCESS:          0  HIT:          0  MISS:          0  HIT %:       -nan  MISS %:       -nan   MPKI: 0
PSCL2 TOTAL     ACCESS:    4006938  HIT:    3700923  MISS:     306015  HIT %:    92.3629  MISS %:    7.63713   MPKI: 1.52997
PSCL2 LOAD      ACCESS:          0  HIT:          0  MISS:          0  HIT %:       -nan  MISS %:       -nan   MPKI: 0
PSCL2 RFO       ACCESS:          0  HIT:          0  MISS:          0  HIT %:       -nan  MISS %:       -nan   MPKI: 0
PSCL2 PREFETCH  ACCESS:          0  HIT:          0  MISS:          0  HIT %:       -nan  MISS %:       -nan   MPKI: 0
PSCL2 WRITEBACK ACCESS:          0  HIT:          0  MISS:          0  HIT %:       -nan  MISS %:       -nan   MPKI: 0
LLC TOTAL     ACCESS:   15273325  HIT:    5577677  MISS:    9695648  HIT %:    36.5191  MISS %:    63.4809   MPKI: 48.475
LLC LOAD      ACCESS:    5753636  HIT:     211959  MISS:    5541677  HIT %:    3.68391  MISS %:    96.3161   MPKI: 27.7065
LLC RFO       ACCESS:    2590285  HIT:      55790  MISS:    2534495  HIT %:    2.15382  MISS %:    97.8462   MPKI: 12.6716
LLC PREFETCH  ACCESS:    1544848  HIT:     218815  MISS:    1326033  HIT %:    14.1642  MISS %:    85.8358   MPKI: 6.62972
LLC WRITEBACK ACCESS:    4155237  HIT:    3971129  MISS:     184108  HIT %:    95.5693  MISS %:    4.43075   MPKI: 0.920478

RAW hits: 6160991
Loads Generated: 57040542
Loads sent to L1D: 50879551
Stores Generated: 24754838
Stores sent to L1D: 24754843

CPU 3 cumulative IPC: 0.122101 instructions: 200000003 cycles: 1637994643
ITLB TOTAL     ACCESS:   37791669  HIT:   37791654  MISS:         15  HIT %:        100  MISS %: 3.96913e-05   MPKI: 7.5e-05
ITLB LOAD      ACCESS:          0  HIT:          0  MISS:          0  HIT %:       -nan  MISS %:       -nan   MPKI: 0
ITLB RFO       ACCESS:          0  HIT:          0  MISS:          0  HIT %:       -nan  MISS %:       -nan   MPKI: 0
ITLB PREFETCH  ACCESS:          0  HIT:          0  MISS:          0  HIT %:       -nan  MISS %:       -nan   MPKI: 0
ITLB WRITEBACK ACCESS:          0  HIT:          0  MISS:          0  HIT %:       -nan  MISS %:       -nan   MPKI: 0
DTLB TOTAL     ACCESS:   49240710  HIT:   44353401  MISS:    4887309  HIT %:    90.0747  MISS %:    9.92534   MPKI: 24.4365
DTLB LOAD      ACCESS:          0  HIT:          0  MISS:          0  HIT %:       -nan  MISS %:       -nan   MPKI: 0
DTLB RFO       ACCESS:          0  HIT:          0  MISS:          0  HIT %:       -nan  MISS %:       -nan   MPKI: 0
DTLB PREFETCH  ACCESS:          0  HIT:          0  MISS:          0  HIT %:       -nan  MISS %:       -nan   MPKI: 0
DTLB WRITEBACK ACCESS:          0  HIT:          0  MISS:          0  HIT %:       -nan  MISS %:       -nan   MPKI: 0
STLB TOTAL     ACCESS:   14327800  HIT:   10324035  MISS:    4003765  HIT %:     72.056  MISS %:     27.944   MPKI: 20.0188
STLB LOAD      ACCESS:          0  HIT:          0  MISS:          0  HIT %:       -nan  MISS %:       -nan   MPKI: 0
STLB RFO       ACCESS:          0  HIT:          0  MISS:          0  HIT %:       -nan  MISS %:       -nan   MPKI: 0
STLB PREFETCH  ACCESS:          0  HIT:          0  MISS:          0  HIT %:       -nan  MISS %:       -nan   MPKI: 0
STLB WRITEBACK ACCESS:          0  HIT:          0  MISS:          0  HIT %:       -nan  MISS %:       -nan   MPKI: 0
L1D TOTAL     ACCESS:   74070254  HIT:   64183575  MISS:    9886679  HIT %:    86.6523  MISS %:    13.3477   MPKI: 49.4334
L1D LOAD      ACCESS:   31468744  HIT:   25400679  MISS:    6068065  HIT %:    80.7172  MISS %:    19.2828   MPKI: 30.3403
L1D RFO       ACCESS:   14448129  HIT:   11840740  MISS:    2607389  HIT %:    81.9534  MISS %:    18.0466   MPKI: 13.0369
L1D PREFETCH  ACCESS:   28153381  HIT:   26942156  MISS:    1211225  HIT %:    95.6978  MISS %:    4.30224   MPKI: 6.05612
L1D WRITEBACK ACCESS:          0  HIT:          0  MISS:          0  HIT %:       -nan  MISS %:       -nan   MPKI: 0
L1I TOTAL     ACCESS:   41739269  HIT:   41739161  MISS:        108  HIT %:    99.9997  MISS %: 0.000258749   MPKI: 0.00054
L1I LOAD      ACCESS:   41739269  HIT:   41739161  MISS:        108  HIT %:    99.9997  MISS %: 0.000258749   MPKI: 0.00054
L1I RFO       ACCESS:          0  HIT:          0  MISS:          0  HIT %:       -nan  MISS %:       -nan   MPKI: 0
L1I PREFETCH  ACCESS:          0  HIT:          0  MISS:          0  HIT %:       -nan  MISS %:       -nan   MPKI: 0
L1I WRITEBACK ACCESS:          0  HIT:          0  MISS:          0  HIT %:       -nan  MISS %:       -nan   MPKI: 0
L2C TOTAL     ACCESS:   24280518  HIT:   12707894  MISS:   11572624  HIT %:    52.3378  MISS %:    47.6622   MPKI: 57.8631
L2C LOAD      ACCESS:    6046093  HIT:     247883  MISS:    5798210  HIT %:    4.09989  MISS %:    95.9001   MPKI: 28.991
L2C RFO       ACCESS:    2607380  HIT:      18391  MISS:    2588989  HIT %:   0.705344  MISS %:    99.2947   MPKI: 12.9449
L2C PREFETCH  ACCESS:    7123961  HIT:    5628491  MISS:    1495470  HIT %:    79.0079  MISS %:    20.9921   MPKI: 7.47735
L2C WRITEBACK ACCESS:    4190096  HIT:    3718062  MISS:     472034  HIT %:    88.7345  MISS %:    11.2655   MPKI: 2.36017
PSCL5 TOTAL     ACCESS:    4006403  HIT:    4006403  MISS:          0  HIT %:        100  MISS %:          0   MPKI: 0
PSCL5 LOAD      ACCESS:          0  HIT:          0  MISS:          0  HIT %:       -nan  MISS %:       -nan   MPKI: 0
PSCL5 RFO       ACCESS:          0  HIT:          0  MISS:          0  HIT %:       -nan  MISS %:       -nan   MPKI: 0
PSCL5 PREFETCH  ACCESS:          0  HIT:          0  MISS:          0  HIT %:       -nan  MISS %:       -nan   MPKI: 0
PSCL5 WRITEBACK ACCESS:          0  HIT:          0  MISS:          0  HIT %:       -nan  MISS %:       -nan   MPKI: 0
PSCL4 TOTAL     ACCESS:    4006403  HIT:    4006403  MISS:          0  HIT %:        100  MISS %:          0   MPKI: 0
PSCL4 LOAD      ACCESS:          0  HIT:          0  MISS:          0  HIT %:       -nan  MISS %:       -nan   MPKI: 0
PSCL4 RFO       ACCESS:          0  HIT:          0  MISS:          0  HIT %:       -nan  MISS %:       -nan   MPKI: 0
PSCL4 PREFETCH  ACCESS:          0  HIT:          0  MISS:          0  HIT %:       -nan  MISS %:       -nan   MPKI: 0
PSCL4 WRITEBACK ACCESS:          0  HIT:          0  MISS:          0  HIT %:       -nan  MISS %:       -nan   MPKI: 0
PSCL3 TOTAL     ACCESS:    4006403  HIT:    4006403  MISS:          0  HIT %:        100  MISS %:          0   MPKI: 0
PSCL3 LOAD      ACCESS:          0  HIT:          0  MISS:          0  HIT %:       -nan  MISS %:       -nan   MPKI: 0
PSCL3 RFO       ACCESS:          0  HIT:          0  MISS:          0  HIT %:       -nan  MISS %:       -nan   MPKI: 0
PSCL3 PREFETCH  ACCESS:          0  HIT:          0  MISS:          0  HIT %:       -nan  MISS %:       -nan   MPKI: 0
PSCL3 WRITEBACK ACCESS:          0  HIT:          0  MISS:          0  HIT %:       -nan  MISS %:       -nan   MPKI: 0
PSCL2 TOTAL     ACCESS:    4006357  HIT:    3699809  MISS:     306548  HIT %:    92.3485  MISS %:    7.65154   MPKI: 1.53274
PSCL2 LOAD      ACCESS:          0  HIT:          0  MISS:          0  HIT %:       -nan  MISS %:       -nan   MPKI: 0
PSCL2 RFO       ACCESS:          0  HIT:          0  MISS:          0  HIT %:       -nan  MISS %:       -nan   MPKI: 0
PSCL2 PREFETCH  ACCESS:          0  HIT:          0  MISS:          0  HIT %:       -nan  MISS %:       -nan   MPKI: 0
PSCL2 WRITEBACK ACCESS:          0  HIT:          0  MISS:          0  HIT %:       -nan  MISS %:       -nan   MPKI: 0
LLC TOTAL     ACCESS:   15251661  HIT:    5557953  MISS:    9693708  HIT %:    36.4416  MISS %:    63.5584   MPKI: 48.4685
LLC LOAD      ACCESS:    5752831  HIT:     211473  MISS:    5541358  HIT %:    3.67598  MISS %:     96.324   MPKI: 27.7068
LLC RFO       ACCESS:    2588985  HIT:      55239  MISS:    2533746  HIT %:    2.13362  MISS %:    97.8664   MPKI: 12.6687
LLC PREFETCH  ACCESS:    1540847  HIT:     215607  MISS:    1325240  HIT %:    13.9928  MISS %:    86.0072   MPKI: 6.6262
LLC WRITEBACK ACCESS:    4151077  HIT:    3965901  MISS:     185176  HIT %:    95.5391  MISS %:    4.46091   MPKI: 0.92588

RAW hits: 6162108
Loads Generated: 57037479
Loads sent to L1D: 50875373
Stores Generated: 24744115
Stores sent to L1D: 24744122

Region of Interest Statistics

CPU 0 cumulative IPC: 0.12328 instructions: 200000002 cycles: 1622327689
ITLB TOTAL     ACCESS:   37759720  HIT:   37759705  MISS:         15  HIT %:        100  MISS %: 3.97249e-05   MPKI: 7.5e-05
ITLB LOAD TRANSLATION ACCESS:   37759720  HIT:   37759705  MISS:         15  HIT %:        100  MISS %: 3.97249e-05   MPKI: 7.5e-05
ITLB PREFETCH  REQUESTED:          0  ISSUED:          0  USEFUL:          0  USELESS:          0
ITLB USEFUL LOAD PREFETCHES:          0 PREFETCH ISSUED TO LOWER LEVEL:          0  ACCURACY: -nan
ITLB TIMELY PREFETCHES:          0 LATE PREFETCHES: 0 DROPPED PREFETCHES: 0
ITLB PREFETCHES SAME FILL-ORIGIN LEVEL: 0 DIFFERENT FILL-ORIGIN LEVEL: 0
ITLB AVERAGE MISS LATENCY: 276.533 cycles
ITLB RQ	ACCESS:   42440340	FORWARD:          0	MERGED:    4037634	TO_CACHE:   38402706

DTLB TOTAL     ACCESS:   49273149  HIT:   44385558  MISS:    4887591  HIT %:    90.0806  MISS %:    9.91938   MPKI: 24.438
DTLB LOAD TRANSLATION ACCESS:   49273149  HIT:   44385558  MISS:    4887591  HIT %:    90.0806  MISS %:    9.91938   MPKI: 24.438
DTLB PREFETCH  REQUESTED:          0  ISSUED:          0  USEFUL:          0  USELESS:          0
DTLB USEFUL LOAD PREFETCHES:          0 PREFETCH ISSUED TO LOWER LEVEL:          0  ACCURACY: -nan
DTLB TIMELY PREFETCHES:          0 LATE PREFETCHES: 0 DROPPED PREFETCHES: 0
DTLB PREFETCHES SAME FILL-ORIGIN LEVEL: 0 DIFFERENT FILL-ORIGIN LEVEL: 0
DTLB AVERAGE MISS LATENCY: 101.182 cycles
DTLB RQ	ACCESS:   57815250	FORWARD:          0	MERGED:    7487866	TO_CACHE:   50327384

STLB TOTAL     ACCESS:   14452072  HIT:   10447754  MISS:    4004318  HIT %:    72.2924  MISS %:    27.7076   MPKI: 20.0216
STLB LOAD TRANSLATION ACCESS:    4887606  HIT:     904984  MISS:    3982622  HIT %:    18.5159  MISS %:    81.4841   MPKI: 19.9131
STLB TRANSLATION FROM L1D PREFETCHER ACCESS:    9564466  HIT:    9542770  MISS:      21696  HIT %:    99.7732  MISS %:    0.22684   MPKI: 0.10848
STLB PREFETCH  REQUESTED:          0  ISSUED:          0  USEFUL:      20568  USELESS:       1570
STLB USEFUL LOAD PREFETCHES:      20568 PREFETCH ISSUED TO LOWER LEVEL:          0  ACCURACY: inf
STLB TIMELY PREFETCHES:      20568 LATE PREFETCHES: 93 DROPPED PREFETCHES: 2744
STLB PREFETCHES SAME FILL-ORIGIN LEVEL: 0 DIFFERENT FILL-ORIGIN LEVEL: 0
STLB AVERAGE MISS LATENCY: 112.88 cycles
STLB RQ	ACCESS:   45987118	FORWARD:          0	MERGED:   31213729	TO_CACHE:   14773389

STLB Hit, L1D data hit: 0
STLB Hit, L2C data hit: 0
STLB Hit, LLC data hit: 0
STLB Hit, LLC data miss: 0
STLB STLB hints to L2: 0
L1D TOTAL     ACCESS:   76333303  HIT:   66440831  MISS:    9892472  HIT %:    87.0404  MISS %:    12.9596   MPKI: 49.4624
L1D LOAD      ACCESS:   31570863  HIT:   25539377  MISS:    6031486  HIT %:    80.8954  MISS %:    19.1046   MPKI: 30.1574
L1D RFO       ACCESS:   14121766  HIT:   11511516  MISS:    2610250  HIT %:    81.5161  MISS %:    18.4839   MPKI: 13.0512
L1D PREFETCH  ACCESS:   30640674  HIT:   29389938  MISS:    1250736  HIT %:    95.9181  MISS %:    4.08195   MPKI: 6.25368
L1D PREFETCH  REQUESTED:   95145619  ISSUED:   95033547  USEFUL:    1265125  USELESS:      15279
L1D USEFUL LOAD PREFETCHES:    1265125 PREFETCH ISSUED TO LOWER LEVEL:    8009539  ACCURACY: 15.7952
L1D TIMELY PREFETCHES:    1265125 LATE PREFETCHES: 23805 DROPPED PREFETCHES: 5828
L1D PREFETCHES SAME FILL-ORIGIN LEVEL: 1304499 DIFFERENT FILL-ORIGIN LEVEL: 6705040
L1D AVERAGE MISS LATENCY: 729.11 cycles
L1D RQ	ACCESS:   51482378	FORWARD:          0	MERGED:   18796022	TO_CACHE:   32658373
L1D WQ	ACCESS:   25157224	FORWARD:      27983	MERGED:        347	TO_CACHE:   25156877
L1D PQ	ACCESS:   53969268	FORWARD:          0	MERGED:   12904989	TO_CACHE:   41064279

L1D UNIQUE REGIONS ACCESSED: 0
L1D REGIONS CONFLICTS: 0
L1D Cross Page Prefetch Requests: 5974984
L1D Same Page Prefetch Requests: 73246993
L1D ROI Sum of L1D PQ occupancy: 562762657
L1D PREFETCHES PUSHED FROM L2C: 0
L1I TOTAL     ACCESS:   41733230  HIT:   41733122  MISS:        108  HIT %:    99.9997  MISS %: 0.000258787   MPKI: 0.00054
L1I LOAD      ACCESS:   41733230  HIT:   41733122  MISS:        108  HIT %:    99.9997  MISS %: 0.000258787   MPKI: 0.00054
L1I PREFETCH  REQUESTED:          0  ISSUED:          0  USEFUL:          0  USELESS:          0
L1I USEFUL LOAD PREFETCHES:          0 PREFETCH ISSUED TO LOWER LEVEL:          0  ACCURACY: -nan
L1I TIMELY PREFETCHES:          0 LATE PREFETCHES: 0 DROPPED PREFETCHES: 0
L1I PREFETCHES SAME FILL-ORIGIN LEVEL: 0 DIFFERENT FILL-ORIGIN LEVEL: 0
L1I AVERAGE MISS LATENCY: 353.75 cycles
L1I RQ	ACCESS:   63055241	FORWARD:          0	MERGED:   20614901	TO_CACHE:   42440340

BTB TOTAL     ACCESS:   29678183  HIT:   29677254  MISS:        929  HIT %:    99.9969  MISS %: 0.00313025   MPKI: 0.004645
BTB BRANCH_DIRECT_JUMP	ACCESS:    1724367  HIT:    1724302  MISS:         65
BTB BRANCH_INDIRECT	ACCESS:          3  HIT:          0  MISS:          3
BTB BRANCH_CONDITIONAL	ACCESS:   27951819  HIT:   27951617  MISS:        202
BTB BRANCH_DIRECT_CALL	ACCESS:        995  HIT:        941  MISS:         54
BTB BRANCH_INDIRECT_CALL	ACCESS:          2  HIT:          0  MISS:          2
BTB BRANCH_RETURN	ACCESS:        997  HIT:        394  MISS:        603
BTB BRANCH_OTHER ACCESS:          0  HIT:          0  MISS:          0

L2C TOTAL     ACCESS:   24044584  HIT:   12555629  MISS:   11488955  HIT %:    52.2181  MISS %:    47.7819   MPKI: 57.4448
L2C LOAD      ACCESS:    6010077  HIT:     227034  MISS:    5783043  HIT %:    3.77756  MISS %:    96.2224   MPKI: 28.9152
L2C DATA LOAD MPKI: 28.9147
L2C INSTRUCTION LOAD MPKI: 0.00054
L2C RFO       ACCESS:    2610248  HIT:      18824  MISS:    2591424  HIT %:   0.721158  MISS %:    99.2788   MPKI: 12.9571
L2C PREFETCH  ACCESS:    6919172  HIT:    5410520  MISS:    1508652  HIT %:    78.1961  MISS %:    21.8039   MPKI: 7.54326
L2C DATA PREFETCH MPKI: 7.54326
L2C INSTRUCTION PREFETCH MPKI: 0
L2C WRITEBACK ACCESS:    4192442  HIT:    3739344  MISS:     453098  HIT %:    89.1925  MISS %:    10.8075   MPKI: 2.26549
L2C LOAD TRANSLATION ACCESS:    4281439  HIT:    3132688  MISS:    1148751  HIT %:     73.169  MISS %:     26.831   MPKI: 5.74375
L2C TRANSLATION FROM L1D PREFETCHER ACCESS:      31206  HIT:      27219  MISS:       3987  HIT %:    87.2236  MISS %:    12.7764   MPKI: 0.019935
L2C PREFETCH  REQUESTED:          0  ISSUED:          0  USEFUL:     141565  USELESS:    1399627
L2C USEFUL LOAD PREFETCHES:     141565 PREFETCH ISSUED TO LOWER LEVEL:    1570961  ACCURACY: 9.01136
L2C TIMELY PREFETCHES:     141565 LATE PREFETCHES: 29020 DROPPED PREFETCHES: 0
L2C PREFETCHES SAME FILL-ORIGIN LEVEL: 987753 DIFFERENT FILL-ORIGIN LEVEL: 0
L2C AVERAGE MISS LATENCY: 659.608 cycles
L2C RQ	ACCESS:   13067025	FORWARD:          0	MERGED:          0	TO_CACHE:   13067024
L2C WQ	ACCESS:    4226657	FORWARD:          2	MERGED:          0	TO_CACHE:    4226657
L2C PQ	ACCESS:    7978805	FORWARD:          0	MERGED:      31332	TO_CACHE:    7947472

L2C Instructions Evicting Data 94
L2C Translations Evicting Data 1031786
L2C Data Evicting Data 9026611
L2C Instructions Evicting Instructions 0
L2C Translations Evicting Instructions 0
L2C Data Evicting Instructions 106
L2C Instructions Evicting Translations 14
L2C Translations Evicting Translations 126079
L2C Data Evicting Translations 995151
L2C Dense regions hint from L2: 0
PSCL5 TOTAL     ACCESS:    4007089  HIT:    4007089  MISS:          0  HIT %:        100  MISS %:          0   MPKI: 0
PSCL5 LOAD TRANSLATION ACCESS:    3982557  HIT:    3982557  MISS:          0  HIT %:        100  MISS %:          0   MPKI: 0
PSCL5 TRANSLATION FROM L1D PREFETCHER ACCESS:      24532  HIT:      24532  MISS:          0  HIT %:        100  MISS %:          0   MPKI: 0
PSCL5 PREFETCH  REQUESTED:          0  ISSUED:          0  USEFUL:          0  USELESS:          0
PSCL5 USEFUL LOAD PREFETCHES:          0 PREFETCH ISSUED TO LOWER LEVEL:          0  ACCURACY: -nan
PSCL5 TIMELY PREFETCHES:          0 LATE PREFETCHES: 0 DROPPED PREFETCHES: 0
PSCL5 PREFETCHES SAME FILL-ORIGIN LEVEL: 0 DIFFERENT FILL-ORIGIN LEVEL: 0

PSCL4 TOTAL     ACCESS:    4007089  HIT:    4007089  MISS:          0  HIT %:        100  MISS %:          0   MPKI: 0
PSCL4 LOAD TRANSLATION ACCESS:    3982557  HIT:    3982557  MISS:          0  HIT %:        100  MISS %:          0   MPKI: 0
PSCL4 TRANSLATION FROM L1D PREFETCHER ACCESS:      24532  HIT:      24532  MISS:          0  HIT %:        100  MISS %:          0   MPKI: 0
PSCL4 PREFETCH  REQUESTED:          0  ISSUED:          0  USEFUL:          0  USELESS:          0
PSCL4 USEFUL LOAD PREFETCHES:          0 PREFETCH ISSUED TO LOWER LEVEL:          0  ACCURACY: -nan
PSCL4 TIMELY PREFETCHES:          0 LATE PREFETCHES: 0 DROPPED PREFETCHES: 0
PSCL4 PREFETCHES SAME FILL-ORIGIN LEVEL: 0 DIFFERENT FILL-ORIGIN LEVEL: 0

PSCL3 TOTAL     ACCESS:    4007089  HIT:    4007089  MISS:          0  HIT %:        100  MISS %:          0   MPKI: 0
PSCL3 LOAD TRANSLATION ACCESS:    3982557  HIT:    3982557  MISS:          0  HIT %:        100  MISS %:          0   MPKI: 0
PSCL3 TRANSLATION FROM L1D PREFETCHER ACCESS:      24532  HIT:      24532  MISS:          0  HIT %:        100  MISS %:          0   MPKI: 0
PSCL3 PREFETCH  REQUESTED:          0  ISSUED:          0  USEFUL:          0  USELESS:          0
PSCL3 USEFUL LOAD PREFETCHES:          0 PREFETCH ISSUED TO LOWER LEVEL:          0  ACCURACY: -nan
PSCL3 TIMELY PREFETCHES:          0 LATE PREFETCHES: 0 DROPPED PREFETCHES: 0
PSCL3 PREFETCHES SAME FILL-ORIGIN LEVEL: 0 DIFFERENT FILL-ORIGIN LEVEL: 0

PSCL2 TOTAL     ACCESS:    4007020  HIT:    3701525  MISS:     305495  HIT %:     92.376  MISS %:    7.62399   MPKI: 1.52747
PSCL2 LOAD TRANSLATION ACCESS:    3989162  HIT:    3683667  MISS:     305495  HIT %:    92.3419  MISS %:    7.65812   MPKI: 1.52747
PSCL2 TRANSLATION FROM L1D PREFETCHER ACCESS:      17858  HIT:      17858  MISS:          0  HIT %:        100  MISS %:          0   MPKI: 0
PSCL2 PREFETCH  REQUESTED:          0  ISSUED:          0  USEFUL:          0  USELESS:          0
PSCL2 USEFUL LOAD PREFETCHES:          0 PREFETCH ISSUED TO LOWER LEVEL:          0  ACCURACY: -nan
PSCL2 TIMELY PREFETCHES:          0 LATE PREFETCHES: 0 DROPPED PREFETCHES: 0
PSCL2 PREFETCHES SAME FILL-ORIGIN LEVEL: 0 DIFFERENT FILL-ORIGIN LEVEL: 0

LLC TOTAL     ACCESS:   15192309  HIT:    5542886  MISS:    9649423  HIT %:    36.4848  MISS %:    63.5152   MPKI: 48.2471
LLC LOAD      ACCESS:    5754119  HIT:     227650  MISS:    5526469  HIT %:     3.9563  MISS %:    96.0437   MPKI: 27.6323
LLC RFO       ACCESS:    2591423  HIT:      66750  MISS:    2524673  HIT %:     2.5758  MISS %:    97.4242   MPKI: 12.6234
LLC PREFETCH  ACCESS:    1537574  HIT:     238165  MISS:    1299409  HIT %:    15.4897  MISS %:    84.5103   MPKI: 6.49704
LLC WRITEBACK ACCESS:    4156455  HIT:    3973755  MISS:     182700  HIT %:    95.6044  MISS %:    4.39557   MPKI: 0.9135
LLC LOAD TRANSLATION ACCESS:    1148751  HIT:    1034694  MISS:     114057  HIT %:    90.0712  MISS %:    9.92878   MPKI: 0.570285
LLC TRANSLATION FROM L1D PREFETCHER ACCESS:       3987  HIT:       1872  MISS:       2115  HIT %:    46.9526  MISS %:    53.0474   MPKI: 0.010575
LLC PREFETCH  REQUESTED:          0  ISSUED:          0  USEFUL:      68162  USELESS:    5240224
LLC USEFUL LOAD PREFETCHES:      68162 PREFETCH ISSUED TO LOWER LEVEL:    5667729  ACCURACY: 1.20263
LLC TIMELY PREFETCHES:      68162 LATE PREFETCHES: 0 DROPPED PREFETCHES: 0
LLC PREFETCHES SAME FILL-ORIGIN LEVEL: 0 DIFFERENT FILL-ORIGIN LEVEL: 0
LLC AVERAGE MISS LATENCY: 3069.73 cycles
LLC RQ	ACCESS:   38389736	FORWARD:          0	MERGED:          0	TO_CACHE:   38389727
LLC WQ	ACCESS:   16693653	FORWARD:         14	MERGED:          0	TO_CACHE:   16693653
LLC PQ	ACCESS:    6224731	FORWARD:          0	MERGED:          0	TO_CACHE:    6224726

LLC Dense regions hint to LLC: 0

RAW hits: 6157925
Loads Generated: 57034498
Loads sent to L1D: 50876568
Stores Generated: 24769898
Stores sent to L1D: 24769872
Major fault: 0 Minor fault: 52251
Allocated PAGES: 209004

CPU 1 cumulative IPC: 0.123079 instructions: 200000001 cycles: 1624973184
ITLB TOTAL     ACCESS:   37776289  HIT:   37776274  MISS:         15  HIT %:        100  MISS %: 3.97074e-05   MPKI: 7.5e-05
ITLB LOAD TRANSLATION ACCESS:   37776289  HIT:   37776274  MISS:         15  HIT %:        100  MISS %: 3.97074e-05   MPKI: 7.5e-05
ITLB PREFETCH  REQUESTED:          0  ISSUED:          0  USEFUL:          0  USELESS:          0
ITLB USEFUL LOAD PREFETCHES:          0 PREFETCH ISSUED TO LOWER LEVEL:          0  ACCURACY: -nan
ITLB TIMELY PREFETCHES:          0 LATE PREFETCHES: 0 DROPPED PREFETCHES: 0
ITLB PREFETCHES SAME FILL-ORIGIN LEVEL: 0 DIFFERENT FILL-ORIGIN LEVEL: 0
ITLB AVERAGE MISS LATENCY: 806.467 cycles
ITLB RQ	ACCESS:   42218954	FORWARD:          0	MERGED:    4024879	TO_CACHE:   38194075

DTLB TOTAL     ACCESS:   49244422  HIT:   44356702  MISS:    4887720  HIT %:    90.0746  MISS %:    9.92543   MPKI: 24.4386
DTLB LOAD TRANSLATION ACCESS:   49244422  HIT:   44356702  MISS:    4887720  HIT %:    90.0746  MISS %:    9.92543   MPKI: 24.4386
DTLB PREFETCH  REQUESTED:          0  ISSUED:          0  USEFUL:          0  USELESS:          0
DTLB USEFUL LOAD PREFETCHES:          0 PREFETCH ISSUED TO LOWER LEVEL:          0  ACCURACY: -nan
DTLB TIMELY PREFETCHES:          0 LATE PREFETCHES: 0 DROPPED PREFETCHES: 0
DTLB PREFETCHES SAME FILL-ORIGIN LEVEL: 0 DIFFERENT FILL-ORIGIN LEVEL: 0
DTLB AVERAGE MISS LATENCY: 103.372 cycles
DTLB RQ	ACCESS:   57673380	FORWARD:          0	MERGED:    7488021	TO_CACHE:   50185359

STLB TOTAL     ACCESS:   14355431  HIT:   10351208  MISS:    4004223  HIT %:    72.1066  MISS %:    27.8934   MPKI: 20.0211
STLB LOAD TRANSLATION ACCESS:    4887735  HIT:     905009  MISS:    3982726  HIT %:    18.5159  MISS %:    81.4841   MPKI: 19.9136
STLB TRANSLATION FROM L1D PREFETCHER ACCESS:    9467696  HIT:    9446199  MISS:      21497  HIT %:    99.7729  MISS %:   0.227056   MPKI: 0.107485
STLB PREFETCH  REQUESTED:          0  ISSUED:          0  USEFUL:      20447  USELESS:       1473
STLB USEFUL LOAD PREFETCHES:      20447 PREFETCH ISSUED TO LOWER LEVEL:          0  ACCURACY: inf
STLB TIMELY PREFETCHES:      20447 LATE PREFETCHES: 91 DROPPED PREFETCHES: 2462
STLB PREFETCHES SAME FILL-ORIGIN LEVEL: 0 DIFFERENT FILL-ORIGIN LEVEL: 0
STLB AVERAGE MISS LATENCY: 115.563 cycles
STLB RQ	ACCESS:   44159034	FORWARD:          0	MERGED:   29616089	TO_CACHE:   14542945

STLB Hit, L1D data hit: 0
STLB Hit, L2C data hit: 0
STLB Hit, LLC data hit: 0
STLB Hit, LLC data miss: 0
STLB STLB hints to L2: 0
L1D TOTAL     ACCESS:   74292740  HIT:   64402809  MISS:    9889931  HIT %:    86.6879  MISS %:    13.3121   MPKI: 49.4497
L1D LOAD      ACCESS:   31490060  HIT:   25423610  MISS:    6066450  HIT %:    80.7353  MISS %:    19.2647   MPKI: 30.3322
L1D RFO       ACCESS:   14174736  HIT:   11565488  MISS:    2609248  HIT %:    81.5923  MISS %:    18.4077   MPKI: 13.0462
L1D PREFETCH  ACCESS:   28627944  HIT:   27413711  MISS:    1214233  HIT %:    95.7586  MISS %:    4.24143   MPKI: 6.07116
L1D PREFETCH  REQUESTED:   90647253  ISSUED:   90541737  USEFUL:    1224005  USELESS:      14138
L1D USEFUL LOAD PREFETCHES:    1224005 PREFETCH ISSUED TO LOWER LEVEL:    8591185  ACCURACY: 14.2472
L1D TIMELY PREFETCHES:    1224005 LATE PREFETCHES: 24646 DROPPED PREFETCHES: 5134
L1D PREFETCHES SAME FILL-ORIGIN LEVEL: 1262795 DIFFERENT FILL-ORIGIN LEVEL: 7328390
L1D AVERAGE MISS LATENCY: 747.61 cycles
L1D RQ	ACCESS:   51372015	FORWARD:          0	MERGED:   18830346	TO_CACHE:   32513738
L1D WQ	ACCESS:   25159979	FORWARD:      27931	MERGED:        337	TO_CACHE:   25159642
L1D PQ	ACCESS:   51306935	FORWARD:          0	MERGED:   12072133	TO_CACHE:   39234802

L1D UNIQUE REGIONS ACCESSED: 0
L1D REGIONS CONFLICTS: 0
L1D Cross Page Prefetch Requests: 5645325
L1D Same Page Prefetch Requests: 70957615
L1D ROI Sum of L1D PQ occupancy: 552707164
L1D PREFETCHES PUSHED FROM L2C: 0
L1I TOTAL     ACCESS:   41734927  HIT:   41734819  MISS:        108  HIT %:    99.9997  MISS %: 0.000258776   MPKI: 0.00054
L1I LOAD      ACCESS:   41734927  HIT:   41734819  MISS:        108  HIT %:    99.9997  MISS %: 0.000258776   MPKI: 0.00054
L1I PREFETCH  REQUESTED:          0  ISSUED:          0  USEFUL:          0  USELESS:          0
L1I USEFUL LOAD PREFETCHES:          0 PREFETCH ISSUED TO LOWER LEVEL:          0  ACCURACY: -nan
L1I TIMELY PREFETCHES:          0 LATE PREFETCHES: 0 DROPPED PREFETCHES: 0
L1I PREFETCHES SAME FILL-ORIGIN LEVEL: 0 DIFFERENT FILL-ORIGIN LEVEL: 0
L1I AVERAGE MISS LATENCY: 913.87 cycles
L1I RQ	ACCESS:   62804761	FORWARD:          0	MERGED:   20585807	TO_CACHE:   42218954

BTB TOTAL     ACCESS:   29680971  HIT:   29680042  MISS:        929  HIT %:    99.9969  MISS %: 0.00312995   MPKI: 0.004645
BTB BRANCH_DIRECT_JUMP	ACCESS:    1724782  HIT:    1724717  MISS:         65
BTB BRANCH_INDIRECT	ACCESS:          3  HIT:          0  MISS:          3
BTB BRANCH_CONDITIONAL	ACCESS:   27954192  HIT:   27953990  MISS:        202
BTB BRANCH_DIRECT_CALL	ACCESS:        995  HIT:        941  MISS:         54
BTB BRANCH_INDIRECT_CALL	ACCESS:          2  HIT:          0  MISS:          2
BTB BRANCH_RETURN	ACCESS:        997  HIT:        394  MISS:        603
BTB BRANCH_OTHER ACCESS:          0  HIT:          0  MISS:          0

L2C TOTAL     ACCESS:   24371735  HIT:   12834015  MISS:   11537720  HIT %:    52.6594  MISS %:    47.3406   MPKI: 57.6886
L2C LOAD      ACCESS:    6042480  HIT:     249098  MISS:    5793382  HIT %:    4.12245  MISS %:    95.8776   MPKI: 28.9669
L2C DATA LOAD MPKI: 28.9664
L2C INSTRUCTION LOAD MPKI: 0.00054
L2C RFO       ACCESS:    2609240  HIT:      18358  MISS:    2590882  HIT %:   0.703577  MISS %:    99.2964   MPKI: 12.9544
L2C PREFETCH  ACCESS:    7215405  HIT:    5712175  MISS:    1503230  HIT %:    79.1664  MISS %:    20.8336   MPKI: 7.51615
L2C DATA PREFETCH MPKI: 7.51615
L2C INSTRUCTION PREFETCH MPKI: 0
L2C WRITEBACK ACCESS:    4191854  HIT:    3729293  MISS:     462561  HIT %:    88.9652  MISS %:    11.0348   MPKI: 2.3128
L2C LOAD TRANSLATION ACCESS:    4282093  HIT:    3098350  MISS:    1183743  HIT %:     72.356  MISS %:     27.644   MPKI: 5.91871
L2C TRANSLATION FROM L1D PREFETCHER ACCESS:      30663  HIT:      26741  MISS:       3922  HIT %:    87.2093  MISS %:    12.7907   MPKI: 0.01961
L2C PREFETCH  REQUESTED:          0  ISSUED:          0  USEFUL:     162356  USELESS:    1366155
L2C USEFUL LOAD PREFETCHES:     162356 PREFETCH ISSUED TO LOWER LEVEL:    1568071  ACCURACY: 10.3539
L2C TIMELY PREFETCHES:     162356 LATE PREFETCHES: 38931 DROPPED PREFETCHES: 0
L2C PREFETCHES SAME FILL-ORIGIN LEVEL: 1032010 DIFFERENT FILL-ORIGIN LEVEL: 0
L2C AVERAGE MISS LATENCY: 674.298 cycles
L2C RQ	ACCESS:   13103151	FORWARD:          0	MERGED:          0	TO_CACHE:   13103149
L2C WQ	ACCESS:    4227142	FORWARD:          4	MERGED:          0	TO_CACHE:    4227142
L2C PQ	ACCESS:    8571024	FORWARD:          0	MERGED:      44685	TO_CACHE:    8526337

L2C Instructions Evicting Data 93
L2C Translations Evicting Data 1047954
L2C Data Evicting Data 9013458
L2C Instructions Evicting Instructions 2
L2C Translations Evicting Instructions 1
L2C Data Evicting Instructions 96
L2C Instructions Evicting Translations 13
L2C Translations Evicting Translations 145435
L2C Data Evicting Translations 1008894
L2C Dense regions hint from L2: 0
PSCL5 TOTAL     ACCESS:    4006709  HIT:    4006709  MISS:          0  HIT %:        100  MISS %:          0   MPKI: 0
PSCL5 LOAD TRANSLATION ACCESS:    3982660  HIT:    3982660  MISS:          0  HIT %:        100  MISS %:          0   MPKI: 0
PSCL5 TRANSLATION FROM L1D PREFETCHER ACCESS:      24049  HIT:      24049  MISS:          0  HIT %:        100  MISS %:          0   MPKI: 0
PSCL5 PREFETCH  REQUESTED:          0  ISSUED:          0  USEFUL:          0  USELESS:          0
PSCL5 USEFUL LOAD PREFETCHES:          0 PREFETCH ISSUED TO LOWER LEVEL:          0  ACCURACY: -nan
PSCL5 TIMELY PREFETCHES:          0 LATE PREFETCHES: 0 DROPPED PREFETCHES: 0
PSCL5 PREFETCHES SAME FILL-ORIGIN LEVEL: 0 DIFFERENT FILL-ORIGIN LEVEL: 0

PSCL4 TOTAL     ACCESS:    4006709  HIT:    4006709  MISS:          0  HIT %:        100  MISS %:          0   MPKI: 0
PSCL4 LOAD TRANSLATION ACCESS:    3982660  HIT:    3982660  MISS:          0  HIT %:        100  MISS %:          0   MPKI: 0
PSCL4 TRANSLATION FROM L1D PREFETCHER ACCESS:      24049  HIT:      24049  MISS:          0  HIT %:        100  MISS %:          0   MPKI: 0
PSCL4 PREFETCH  REQUESTED:          0  ISSUED:          0  USEFUL:          0  USELESS:          0
PSCL4 USEFUL LOAD PREFETCHES:          0 PREFETCH ISSUED TO LOWER LEVEL:          0  ACCURACY: -nan
PSCL4 TIMELY PREFETCHES:          0 LATE PREFETCHES: 0 DROPPED PREFETCHES: 0
PSCL4 PREFETCHES SAME FILL-ORIGIN LEVEL: 0 DIFFERENT FILL-ORIGIN LEVEL: 0

PSCL3 TOTAL     ACCESS:    4006709  HIT:    4006709  MISS:          0  HIT %:        100  MISS %:          0   MPKI: 0
PSCL3 LOAD TRANSLATION ACCESS:    3982660  HIT:    3982660  MISS:          0  HIT %:        100  MISS %:          0   MPKI: 0
PSCL3 TRANSLATION FROM L1D PREFETCHER ACCESS:      24049  HIT:      24049  MISS:          0  HIT %:        100  MISS %:          0   MPKI: 0
PSCL3 PREFETCH  REQUESTED:          0  ISSUED:          0  USEFUL:          0  USELESS:          0
PSCL3 USEFUL LOAD PREFETCHES:          0 PREFETCH ISSUED TO LOWER LEVEL:          0  ACCURACY: -nan
PSCL3 TIMELY PREFETCHES:          0 LATE PREFETCHES: 0 DROPPED PREFETCHES: 0
PSCL3 PREFETCHES SAME FILL-ORIGIN LEVEL: 0 DIFFERENT FILL-ORIGIN LEVEL: 0

PSCL2 TOTAL     ACCESS:    4006700  HIT:    3700654  MISS:     306046  HIT %:    92.3616  MISS %:    7.63836   MPKI: 1.53023
PSCL2 LOAD TRANSLATION ACCESS:    3989265  HIT:    3683219  MISS:     306046  HIT %:    92.3283  MISS %:    7.67174   MPKI: 1.53023
PSCL2 TRANSLATION FROM L1D PREFETCHER ACCESS:      17435  HIT:      17435  MISS:          0  HIT %:        100  MISS %:          0   MPKI: 0
PSCL2 PREFETCH  REQUESTED:          0  ISSUED:          0  USEFUL:          0  USELESS:          0
PSCL2 USEFUL LOAD PREFETCHES:          0 PREFETCH ISSUED TO LOWER LEVEL:          0  ACCURACY: -nan
PSCL2 TIMELY PREFETCHES:          0 LATE PREFETCHES: 0 DROPPED PREFETCHES: 0
PSCL2 PREFETCHES SAME FILL-ORIGIN LEVEL: 0 DIFFERENT FILL-ORIGIN LEVEL: 0

LLC TOTAL     ACCESS:   15230796  HIT:    5557837  MISS:    9672959  HIT %:    36.4908  MISS %:    63.5092   MPKI: 48.3648
LLC LOAD      ACCESS:    5754543  HIT:     220531  MISS:    5534012  HIT %:    3.83229  MISS %:    96.1677   MPKI: 27.6701
LLC RFO       ACCESS:    2590881  HIT:      61787  MISS:    2529094  HIT %:    2.38479  MISS %:    97.6152   MPKI: 12.6455
LLC PREFETCH  ACCESS:    1542068  HIT:     225549  MISS:    1316519  HIT %:    14.6264  MISS %:    85.3736   MPKI: 6.58259
LLC WRITEBACK ACCESS:    4155639  HIT:    3975911  MISS:     179728  HIT %:    95.6751  MISS %:    4.32492   MPKI: 0.89864
LLC LOAD TRANSLATION ACCESS:    1183743  HIT:    1072259  MISS:     111484  HIT %:    90.5821  MISS %:    9.41792   MPKI: 0.55742
LLC TRANSLATION FROM L1D PREFETCHER ACCESS:       3922  HIT:       1800  MISS:       2122  HIT %:     45.895  MISS %:     54.105   MPKI: 0.01061
LLC PREFETCH  REQUESTED:          0  ISSUED:          0  USEFUL:      68162  USELESS:    5240224
LLC USEFUL LOAD PREFETCHES:      68162 PREFETCH ISSUED TO LOWER LEVEL:    5667729  ACCURACY: 1.20263
LLC TIMELY PREFETCHES:      68162 LATE PREFETCHES: 0 DROPPED PREFETCHES: 0
LLC PREFETCHES SAME FILL-ORIGIN LEVEL: 0 DIFFERENT FILL-ORIGIN LEVEL: 0
LLC AVERAGE MISS LATENCY: 3062.26 cycles
LLC RQ	ACCESS:   38389736	FORWARD:          0	MERGED:          0	TO_CACHE:   38389727
LLC WQ	ACCESS:   16693653	FORWARD:         14	MERGED:          0	TO_CACHE:   16693653
LLC PQ	ACCESS:    6224731	FORWARD:          0	MERGED:          0	TO_CACHE:    6224726

LLC Dense regions hint to LLC: 0

RAW hits: 6159629
Loads Generated: 57035562
Loads sent to L1D: 50875933
Stores Generated: 24760694
Stores sent to L1D: 24760694
Major fault: 0 Minor fault: 52251
Allocated PAGES: 209004

CPU 2 cumulative IPC: 0.122107 instructions: 200000002 cycles: 1637905499
ITLB TOTAL     ACCESS:   37794699  HIT:   37794684  MISS:         15  HIT %:        100  MISS %: 3.96881e-05   MPKI: 7.5e-05
ITLB LOAD TRANSLATION ACCESS:   37794699  HIT:   37794684  MISS:         15  HIT %:        100  MISS %: 3.96881e-05   MPKI: 7.5e-05
ITLB PREFETCH  REQUESTED:          0  ISSUED:          0  USEFUL:          0  USELESS:          0
ITLB USEFUL LOAD PREFETCHES:          0 PREFETCH ISSUED TO LOWER LEVEL:          0  ACCURACY: -nan
ITLB TIMELY PREFETCHES:          0 LATE PREFETCHES: 0 DROPPED PREFETCHES: 0
ITLB PREFETCHES SAME FILL-ORIGIN LEVEL: 0 DIFFERENT FILL-ORIGIN LEVEL: 0
ITLB AVERAGE MISS LATENCY: 1138.87 cycles
ITLB RQ	ACCESS:   41750396	FORWARD:          0	MERGED:    3953036	TO_CACHE:   37797360

DTLB TOTAL     ACCESS:   49244678  HIT:   44357211  MISS:    4887467  HIT %:    90.0751  MISS %:    9.92486   MPKI: 24.4373
DTLB LOAD TRANSLATION ACCESS:   49244678  HIT:   44357211  MISS:    4887467  HIT %:    90.0751  MISS %:    9.92486   MPKI: 24.4373
DTLB PREFETCH  REQUESTED:          0  ISSUED:          0  USEFUL:          0  USELESS:          0
DTLB USEFUL LOAD PREFETCHES:          0 PREFETCH ISSUED TO LOWER LEVEL:          0  ACCURACY: -nan
DTLB TIMELY PREFETCHES:          0 LATE PREFETCHES: 0 DROPPED PREFETCHES: 0
DTLB PREFETCHES SAME FILL-ORIGIN LEVEL: 0 DIFFERENT FILL-ORIGIN LEVEL: 0
DTLB AVERAGE MISS LATENCY: 103.164 cycles
DTLB RQ	ACCESS:   57032839	FORWARD:          0	MERGED:    7247318	TO_CACHE:   49785521

STLB TOTAL     ACCESS:   14340418  HIT:   10336248  MISS:    4004170  HIT %:    72.0777  MISS %:    27.9223   MPKI: 20.0208
STLB LOAD TRANSLATION ACCESS:    4887482  HIT:     905039  MISS:    3982443  HIT %:    18.5175  MISS %:    81.4825   MPKI: 19.9122
STLB TRANSLATION FROM L1D PREFETCHER ACCESS:    9452936  HIT:    9431209  MISS:      21727  HIT %:    99.7702  MISS %:   0.229844   MPKI: 0.108635
STLB PREFETCH  REQUESTED:          0  ISSUED:          0  USEFUL:      20159  USELESS:       1571
STLB USEFUL LOAD PREFETCHES:      20159 PREFETCH ISSUED TO LOWER LEVEL:          0  ACCURACY: inf
STLB TIMELY PREFETCHES:      20159 LATE PREFETCHES: 99 DROPPED PREFETCHES: 2427
STLB PREFETCHES SAME FILL-ORIGIN LEVEL: 0 DIFFERENT FILL-ORIGIN LEVEL: 0
STLB AVERAGE MISS LATENCY: 115.386 cycles
STLB RQ	ACCESS:   43178716	FORWARD:          0	MERGED:   28832509	TO_CACHE:   14346207

STLB Hit, L1D data hit: 0
STLB Hit, L2C data hit: 0
STLB Hit, LLC data hit: 0
STLB Hit, LLC data miss: 0
STLB STLB hints to L2: 0
L1D TOTAL     ACCESS:   73818456  HIT:   63929488  MISS:    9888968  HIT %:    86.6037  MISS %:    13.3963   MPKI: 49.4448
L1D LOAD      ACCESS:   31468951  HIT:   25395036  MISS:    6073915  HIT %:    80.6987  MISS %:    19.3013   MPKI: 30.3696
L1D RFO       ACCESS:   14386106  HIT:   11777918  MISS:    2608188  HIT %:    81.8701  MISS %:    18.1299   MPKI: 13.0409
L1D PREFETCH  ACCESS:   27963399  HIT:   26756534  MISS:    1206865  HIT %:    95.6841  MISS %:    4.31587   MPKI: 6.03432
L1D PREFETCH  REQUESTED:   88387145  ISSUED:   88273185  USEFUL:    1191856  USELESS:      15076
L1D USEFUL LOAD PREFETCHES:    1191856 PREFETCH ISSUED TO LOWER LEVEL:    8774109  ACCURACY: 13.5838
L1D TIMELY PREFETCHES:    1191856 LATE PREFETCHES: 24322 DROPPED PREFETCHES: 5809
L1D PREFETCHES SAME FILL-ORIGIN LEVEL: 1231592 DIFFERENT FILL-ORIGIN LEVEL: 7542517
L1D AVERAGE MISS LATENCY: 747.565 cycles
L1D RQ	ACCESS:   50879551	FORWARD:          0	MERGED:   18571588	TO_CACHE:   32279974
L1D WQ	ACCESS:   24753222	FORWARD:      27989	MERGED:        357	TO_CACHE:   24752865
L1D PQ	ACCESS:   49982369	FORWARD:          0	MERGED:   11691553	TO_CACHE:   38290816

L1D UNIQUE REGIONS ACCESSED: 0
L1D REGIONS CONFLICTS: 0
L1D Cross Page Prefetch Requests: 5514795
L1D Same Page Prefetch Requests: 69696182
L1D ROI Sum of L1D PQ occupancy: 544734380
L1D PREFETCHES PUSHED FROM L2C: 0
L1I TOTAL     ACCESS:   41747053  HIT:   41746945  MISS:        108  HIT %:    99.9997  MISS %: 0.000258701   MPKI: 0.00054
L1I LOAD      ACCESS:   41747053  HIT:   41746945  MISS:        108  HIT %:    99.9997  MISS %: 0.000258701   MPKI: 0.00054
L1I PREFETCH  REQUESTED:          0  ISSUED:          0  USEFUL:          0  USELESS:          0
L1I USEFUL LOAD PREFETCHES:          0 PREFETCH ISSUED TO LOWER LEVEL:          0  ACCURACY: -nan
L1I TIMELY PREFETCHES:          0 LATE PREFETCHES: 0 DROPPED PREFETCHES: 0
L1I PREFETCHES SAME FILL-ORIGIN LEVEL: 0 DIFFERENT FILL-ORIGIN LEVEL: 0
L1I AVERAGE MISS LATENCY: 1828.78 cycles
L1I RQ	ACCESS:   62195561	FORWARD:          0	MERGED:   20445165	TO_CACHE:   41750396

BTB TOTAL     ACCESS:   29683827  HIT:   29682898  MISS:        929  HIT %:    99.9969  MISS %: 0.00312965   MPKI: 0.004645
BTB BRANCH_DIRECT_JUMP	ACCESS:    1725187  HIT:    1725122  MISS:         65
BTB BRANCH_INDIRECT	ACCESS:          3  HIT:          0  MISS:          3
BTB BRANCH_CONDITIONAL	ACCESS:   27956643  HIT:   27956441  MISS:        202
BTB BRANCH_DIRECT_CALL	ACCESS:        995  HIT:        941  MISS:         54
BTB BRANCH_INDIRECT_CALL	ACCESS:          2  HIT:          0  MISS:          2
BTB BRANCH_RETURN	ACCESS:        997  HIT:        394  MISS:        603
BTB BRANCH_OTHER ACCESS:          0  HIT:          0  MISS:          0

L2C TOTAL     ACCESS:   24452020  HIT:   12862115  MISS:   11589905  HIT %:    52.6014  MISS %:    47.3986   MPKI: 57.9495
L2C LOAD      ACCESS:    6049699  HIT:     253349  MISS:    5796350  HIT %:     4.1878  MISS %:    95.8122   MPKI: 28.9817
L2C DATA LOAD MPKI: 28.9812
L2C INSTRUCTION LOAD MPKI: 0.00054
L2C RFO       ACCESS:    2608185  HIT:      18247  MISS:    2589938  HIT %:   0.699605  MISS %:    99.3004   MPKI: 12.9497
L2C PREFETCH  ACCESS:    7290312  HIT:    5789036  MISS:    1501276  HIT %:    79.4072  MISS %:    20.5928   MPKI: 7.50638
L2C DATA PREFETCH MPKI: 7.50638
L2C INSTRUCTION PREFETCH MPKI: 0
L2C WRITEBACK ACCESS:    4191150  HIT:    3717967  MISS:     473183  HIT %:    88.7099  MISS %:    11.2901   MPKI: 2.36591
L2C LOAD TRANSLATION ACCESS:    4281773  HIT:    3056566  MISS:    1225207  HIT %:    71.3855  MISS %:    28.6145   MPKI: 6.12603
L2C TRANSLATION FROM L1D PREFETCHER ACCESS:      30901  HIT:      26950  MISS:       3951  HIT %:     87.214  MISS %:     12.786   MPKI: 0.019755
L2C PREFETCH  REQUESTED:          0  ISSUED:          0  USEFUL:     165965  USELESS:    1340372
L2C USEFUL LOAD PREFETCHES:     165965 PREFETCH ISSUED TO LOWER LEVEL:    1544849  ACCURACY: 10.7431
L2C TIMELY PREFETCHES:     165965 LATE PREFETCHES: 43514 DROPPED PREFETCHES: 0
L2C PREFETCHES SAME FILL-ORIGIN LEVEL: 1039645 DIFFERENT FILL-ORIGIN LEVEL: 0
L2C AVERAGE MISS LATENCY: 672.538 cycles
L2C RQ	ACCESS:   12972078	FORWARD:          0	MERGED:          0	TO_CACHE:   12972075
L2C WQ	ACCESS:    4191504	FORWARD:          3	MERGED:          0	TO_CACHE:    4191504
L2C PQ	ACCESS:    8751576	FORWARD:          0	MERGED:      49212	TO_CACHE:    8702364

L2C Instructions Evicting Data 96
L2C Translations Evicting Data 1055196
L2C Data Evicting Data 8876149
L2C Instructions Evicting Instructions 0
L2C Translations Evicting Instructions 0
L2C Data Evicting Instructions 91
L2C Instructions Evicting Translations 12
L2C Translations Evicting Translations 174123
L2C Data Evicting Translations 1012424
L2C Dense regions hint from L2: 0
PSCL5 TOTAL     ACCESS:    4006620  HIT:    4006620  MISS:          0  HIT %:        100  MISS %:          0   MPKI: 0
PSCL5 LOAD TRANSLATION ACCESS:    3982367  HIT:    3982367  MISS:          0  HIT %:        100  MISS %:          0   MPKI: 0
PSCL5 TRANSLATION FROM L1D PREFETCHER ACCESS:      24253  HIT:      24253  MISS:          0  HIT %:        100  MISS %:          0   MPKI: 0
PSCL5 PREFETCH  REQUESTED:          0  ISSUED:          0  USEFUL:          0  USELESS:          0
PSCL5 USEFUL LOAD PREFETCHES:          0 PREFETCH ISSUED TO LOWER LEVEL:          0  ACCURACY: -nan
PSCL5 TIMELY PREFETCHES:          0 LATE PREFETCHES: 0 DROPPED PREFETCHES: 0
PSCL5 PREFETCHES SAME FILL-ORIGIN LEVEL: 0 DIFFERENT FILL-ORIGIN LEVEL: 0

PSCL4 TOTAL     ACCESS:    4006620  HIT:    4006620  MISS:          0  HIT %:        100  MISS %:          0   MPKI: 0
PSCL4 LOAD TRANSLATION ACCESS:    3982367  HIT:    3982367  MISS:          0  HIT %:        100  MISS %:          0   MPKI: 0
PSCL4 TRANSLATION FROM L1D PREFETCHER ACCESS:      24253  HIT:      24253  MISS:          0  HIT %:        100  MISS %:          0   MPKI: 0
PSCL4 PREFETCH  REQUESTED:          0  ISSUED:          0  USEFUL:          0  USELESS:          0
PSCL4 USEFUL LOAD PREFETCHES:          0 PREFETCH ISSUED TO LOWER LEVEL:          0  ACCURACY: -nan
PSCL4 TIMELY PREFETCHES:          0 LATE PREFETCHES: 0 DROPPED PREFETCHES: 0
PSCL4 PREFETCHES SAME FILL-ORIGIN LEVEL: 0 DIFFERENT FILL-ORIGIN LEVEL: 0

PSCL3 TOTAL     ACCESS:    4006620  HIT:    4006620  MISS:          0  HIT %:        100  MISS %:          0   MPKI: 0
PSCL3 LOAD TRANSLATION ACCESS:    3982367  HIT:    3982367  MISS:          0  HIT %:        100  MISS %:          0   MPKI: 0
PSCL3 TRANSLATION FROM L1D PREFETCHER ACCESS:      24253  HIT:      24253  MISS:          0  HIT %:        100  MISS %:          0   MPKI: 0
PSCL3 PREFETCH  REQUESTED:          0  ISSUED:          0  USEFUL:          0  USELESS:          0
PSCL3 USEFUL LOAD PREFETCHES:          0 PREFETCH ISSUED TO LOWER LEVEL:          0  ACCURACY: -nan
PSCL3 TIMELY PREFETCHES:          0 LATE PREFETCHES: 0 DROPPED PREFETCHES: 0
PSCL3 PREFETCHES SAME FILL-ORIGIN LEVEL: 0 DIFFERENT FILL-ORIGIN LEVEL: 0

PSCL2 TOTAL     ACCESS:    4006573  HIT:    3700558  MISS:     306015  HIT %:    92.3622  MISS %:    7.63782   MPKI: 1.53007
PSCL2 LOAD TRANSLATION ACCESS:    3988968  HIT:    3682953  MISS:     306015  HIT %:    92.3285  MISS %:    7.67153   MPKI: 1.53007
PSCL2 TRANSLATION FROM L1D PREFETCHER ACCESS:      17605  HIT:      17605  MISS:          0  HIT %:        100  MISS %:          0   MPKI: 0
PSCL2 PREFETCH  REQUESTED:          0  ISSUED:          0  USEFUL:          0  USELESS:          0
PSCL2 USEFUL LOAD PREFETCHES:          0 PREFETCH ISSUED TO LOWER LEVEL:          0  ACCURACY: -nan
PSCL2 TIMELY PREFETCHES:          0 LATE PREFETCHES: 0 DROPPED PREFETCHES: 0
PSCL2 PREFETCHES SAME FILL-ORIGIN LEVEL: 0 DIFFERENT FILL-ORIGIN LEVEL: 0

LLC TOTAL     ACCESS:   15271031  HIT:    5577001  MISS:    9694030  HIT %:    36.5201  MISS %:    63.4799   MPKI: 48.4701
LLC LOAD      ACCESS:    5752837  HIT:     211959  MISS:    5540878  HIT %:    3.68443  MISS %:    96.3156   MPKI: 27.7044
LLC RFO       ACCESS:    2589936  HIT:      55790  MISS:    2534146  HIT %:    2.15411  MISS %:    97.8459   MPKI: 12.6707
LLC PREFETCH  ACCESS:    1544788  HIT:     218815  MISS:    1325973  HIT %:    14.1647  MISS %:    85.8353   MPKI: 6.62986
LLC WRITEBACK ACCESS:    4154312  HIT:    3970481  MISS:     183831  HIT %:    95.5749  MISS %:    4.42506   MPKI: 0.919155
LLC LOAD TRANSLATION ACCESS:    1225207  HIT:    1118109  MISS:     107098  HIT %:    91.2588  MISS %:    8.74122   MPKI: 0.53549
LLC TRANSLATION FROM L1D PREFETCHER ACCESS:       3951  HIT:       1847  MISS:       2104  HIT %:    46.7477  MISS %:    53.2523   MPKI: 0.01052
LLC PREFETCH  REQUESTED:          0  ISSUED:          0  USEFUL:      68162  USELESS:    5240224
LLC USEFUL LOAD PREFETCHES:      68162 PREFETCH ISSUED TO LOWER LEVEL:    5667729  ACCURACY: 1.20263
LLC TIMELY PREFETCHES:      68162 LATE PREFETCHES: 0 DROPPED PREFETCHES: 0
LLC PREFETCHES SAME FILL-ORIGIN LEVEL: 0 DIFFERENT FILL-ORIGIN LEVEL: 0
LLC AVERAGE MISS LATENCY: 3055.61 cycles
LLC RQ	ACCESS:   38389736	FORWARD:          0	MERGED:          0	TO_CACHE:   38389727
LLC WQ	ACCESS:   16693653	FORWARD:         14	MERGED:          0	TO_CACHE:   16693653
LLC PQ	ACCESS:    6224731	FORWARD:          0	MERGED:          0	TO_CACHE:    6224726

LLC Dense regions hint to LLC: 0

RAW hits: 6160991
Loads Generated: 57036558
Loads sent to L1D: 50875562
Stores Generated: 24750872
Stores sent to L1D: 24750873
Major fault: 0 Minor fault: 52251
Allocated PAGES: 209004

CPU 3 cumulative IPC: 0.122101 instructions: 200000003 cycles: 1637994643
ITLB TOTAL     ACCESS:   37791669  HIT:   37791654  MISS:         15  HIT %:        100  MISS %: 3.96913e-05   MPKI: 7.5e-05
ITLB LOAD TRANSLATION ACCESS:   37791669  HIT:   37791654  MISS:         15  HIT %:        100  MISS %: 3.96913e-05   MPKI: 7.5e-05
ITLB PREFETCH  REQUESTED:          0  ISSUED:          0  USEFUL:          0  USELESS:          0
ITLB USEFUL LOAD PREFETCHES:          0 PREFETCH ISSUED TO LOWER LEVEL:          0  ACCURACY: -nan
ITLB TIMELY PREFETCHES:          0 LATE PREFETCHES: 0 DROPPED PREFETCHES: 0
ITLB PREFETCHES SAME FILL-ORIGIN LEVEL: 0 DIFFERENT FILL-ORIGIN LEVEL: 0
ITLB AVERAGE MISS LATENCY: 2034 cycles
ITLB RQ	ACCESS:   41739283	FORWARD:          0	MERGED:    3947608	TO_CACHE:   37791675

DTLB TOTAL     ACCESS:   49240710  HIT:   44353401  MISS:    4887309  HIT %:    90.0747  MISS %:    9.92534   MPKI: 24.4365
DTLB LOAD TRANSLATION ACCESS:   49240710  HIT:   44353401  MISS:    4887309  HIT %:    90.0747  MISS %:    9.92534   MPKI: 24.4365
DTLB PREFETCH  REQUESTED:          0  ISSUED:          0  USEFUL:          0  USELESS:          0
DTLB USEFUL LOAD PREFETCHES:          0 PREFETCH ISSUED TO LOWER LEVEL:          0  ACCURACY: -nan
DTLB TIMELY PREFETCHES:          0 LATE PREFETCHES: 0 DROPPED PREFETCHES: 0
DTLB PREFETCHES SAME FILL-ORIGIN LEVEL: 0 DIFFERENT FILL-ORIGIN LEVEL: 0
DTLB AVERAGE MISS LATENCY: 104.592 cycles
DTLB RQ	ACCESS:   57020691	FORWARD:          0	MERGED:    7242023	TO_CACHE:   49778668

STLB TOTAL     ACCESS:   14327800  HIT:   10324035  MISS:    4003765  HIT %:     72.056  MISS %:     27.944   MPKI: 20.0188
STLB LOAD TRANSLATION ACCESS:    4887324  HIT:     905153  MISS:    3982171  HIT %:    18.5204  MISS %:    81.4796   MPKI: 19.9109
STLB TRANSLATION FROM L1D PREFETCHER ACCESS:    9440476  HIT:    9418882  MISS:      21594  HIT %:    99.7713  MISS %:   0.228738   MPKI: 0.10797
STLB PREFETCH  REQUESTED:          0  ISSUED:          0  USEFUL:      20071  USELESS:       1526
STLB USEFUL LOAD PREFETCHES:      20071 PREFETCH ISSUED TO LOWER LEVEL:          0  ACCURACY: inf
STLB TIMELY PREFETCHES:      20071 LATE PREFETCHES: 113 DROPPED PREFETCHES: 2608
STLB PREFETCHES SAME FILL-ORIGIN LEVEL: 0 DIFFERENT FILL-ORIGIN LEVEL: 0
STLB AVERAGE MISS LATENCY: 117.136 cycles
STLB RQ	ACCESS:   43142735	FORWARD:          0	MERGED:   28809856	TO_CACHE:   14332879

STLB Hit, L1D data hit: 0
STLB Hit, L2C data hit: 0
STLB Hit, LLC data hit: 0
STLB Hit, LLC data miss: 0
STLB STLB hints to L2: 0
L1D TOTAL     ACCESS:   74070254  HIT:   64183575  MISS:    9886679  HIT %:    86.6523  MISS %:    13.3477   MPKI: 49.4334
L1D LOAD      ACCESS:   31468744  HIT:   25400679  MISS:    6068065  HIT %:    80.7172  MISS %:    19.2828   MPKI: 30.3403
L1D RFO       ACCESS:   14448129  HIT:   11840740  MISS:    2607389  HIT %:    81.9534  MISS %:    18.0466   MPKI: 13.0369
L1D PREFETCH  ACCESS:   28153381  HIT:   26942156  MISS:    1211225  HIT %:    95.6978  MISS %:    4.30224   MPKI: 6.05612
L1D PREFETCH  REQUESTED:   88417962  ISSUED:   88306535  USEFUL:    1197073  USELESS:      14172
L1D USEFUL LOAD PREFETCHES:    1197073 PREFETCH ISSUED TO LOWER LEVEL:    8658983  ACCURACY: 13.8246
L1D TIMELY PREFETCHES:    1197073 LATE PREFETCHES: 22079 DROPPED PREFETCHES: 5588
L1D PREFETCHES SAME FILL-ORIGIN LEVEL: 1233315 DIFFERENT FILL-ORIGIN LEVEL: 7425668
L1D AVERAGE MISS LATENCY: 745.525 cycles
L1D RQ	ACCESS:   50875373	FORWARD:          0	MERGED:   18568686	TO_CACHE:   32278700
L1D WQ	ACCESS:   24742369	FORWARD:      27987	MERGED:        378	TO_CACHE:   24741991
L1D PQ	ACCESS:   50051132	FORWARD:          0	MERGED:   11795729	TO_CACHE:   38255403

L1D UNIQUE REGIONS ACCESSED: 0
L1D REGIONS CONFLICTS: 0
L1D Cross Page Prefetch Requests: 5519991
L1D Same Page Prefetch Requests: 69774001
L1D ROI Sum of L1D PQ occupancy: 543692228
L1D PREFETCHES PUSHED FROM L2C: 0
L1I TOTAL     ACCESS:   41739269  HIT:   41739161  MISS:        108  HIT %:    99.9997  MISS %: 0.000258749   MPKI: 0.00054
L1I LOAD      ACCESS:   41739269  HIT:   41739161  MISS:        108  HIT %:    99.9997  MISS %: 0.000258749   MPKI: 0.00054
L1I PREFETCH  REQUESTED:          0  ISSUED:          0  USEFUL:          0  USELESS:          0
L1I USEFUL LOAD PREFETCHES:          0 PREFETCH ISSUED TO LOWER LEVEL:          0  ACCURACY: -nan
L1I TIMELY PREFETCHES:          0 LATE PREFETCHES: 0 DROPPED PREFETCHES: 0
L1I PREFETCHES SAME FILL-ORIGIN LEVEL: 0 DIFFERENT FILL-ORIGIN LEVEL: 0
L1I AVERAGE MISS LATENCY: 2038.4 cycles
L1I RQ	ACCESS:   62184408	FORWARD:          0	MERGED:   20445125	TO_CACHE:   41739283

BTB TOTAL     ACCESS:   29685805  HIT:   29684867  MISS:        938  HIT %:    99.9968  MISS %: 0.00315976   MPKI: 0.00469
BTB BRANCH_DIRECT_JUMP	ACCESS:    1725498  HIT:    1725431  MISS:         67
BTB BRANCH_INDIRECT	ACCESS:          3  HIT:          0  MISS:          3
BTB BRANCH_CONDITIONAL	ACCESS:   27958310  HIT:   27958101  MISS:        209
BTB BRANCH_DIRECT_CALL	ACCESS:        995  HIT:        941  MISS:         54
BTB BRANCH_INDIRECT_CALL	ACCESS:          2  HIT:          0  MISS:          2
BTB BRANCH_RETURN	ACCESS:        997  HIT:        394  MISS:        603
BTB BRANCH_OTHER ACCESS:          0  HIT:          0  MISS:          0

L2C TOTAL     ACCESS:   24280518  HIT:   12707894  MISS:   11572624  HIT %:    52.3378  MISS %:    47.6622   MPKI: 57.8631
L2C LOAD      ACCESS:    6046093  HIT:     247883  MISS:    5798210  HIT %:    4.09989  MISS %:    95.9001   MPKI: 28.991
L2C DATA LOAD MPKI: 28.9905
L2C INSTRUCTION LOAD MPKI: 0.00054
L2C RFO       ACCESS:    2607380  HIT:      18391  MISS:    2588989  HIT %:   0.705344  MISS %:    99.2947   MPKI: 12.9449
L2C PREFETCH  ACCESS:    7123961  HIT:    5628491  MISS:    1495470  HIT %:    79.0079  MISS %:    20.9921   MPKI: 7.47735
L2C DATA PREFETCH MPKI: 7.47735
L2C INSTRUCTION PREFETCH MPKI: 0
L2C WRITEBACK ACCESS:    4190096  HIT:    3718062  MISS:     472034  HIT %:    88.7345  MISS %:    11.2655   MPKI: 2.36017
L2C LOAD TRANSLATION ACCESS:    4282019  HIT:    3067910  MISS:    1214109  HIT %:    71.6463  MISS %:    28.3537   MPKI: 6.07054
L2C TRANSLATION FROM L1D PREFETCHER ACCESS:      30969  HIT:      27157  MISS:       3812  HIT %:    87.6909  MISS %:    12.3091   MPKI: 0.01906
L2C PREFETCH  REQUESTED:          0  ISSUED:          0  USEFUL:     160545  USELESS:    1339883
L2C USEFUL LOAD PREFETCHES:     160545 PREFETCH ISSUED TO LOWER LEVEL:    1540850  ACCURACY: 10.4192
L2C TIMELY PREFETCHES:     160545 LATE PREFETCHES: 45380 DROPPED PREFETCHES: 0
L2C PREFETCHES SAME FILL-ORIGIN LEVEL: 1035579 DIFFERENT FILL-ORIGIN LEVEL: 0
L2C AVERAGE MISS LATENCY: 671.903 cycles
L2C RQ	ACCESS:   12966463	FORWARD:          0	MERGED:          0	TO_CACHE:   12966462
L2C WQ	ACCESS:    4190097	FORWARD:          2	MERGED:          0	TO_CACHE:    4190097
L2C PQ	ACCESS:    8617132	FORWARD:          0	MERGED:      39691	TO_CACHE:    8577440

L2C Instructions Evicting Data 98
L2C Translations Evicting Data 1058180
L2C Data Evicting Data 8866180
L2C Instructions Evicting Instructions 1
L2C Translations Evicting Instructions 1
L2C Data Evicting Instructions 89
L2C Instructions Evicting Translations 9
L2C Translations Evicting Translations 159740
L2C Data Evicting Translations 1016292
L2C Dense regions hint from L2: 0
PSCL5 TOTAL     ACCESS:    4006403  HIT:    4006403  MISS:          0  HIT %:        100  MISS %:          0   MPKI: 0
PSCL5 LOAD TRANSLATION ACCESS:    3982088  HIT:    3982088  MISS:          0  HIT %:        100  MISS %:          0   MPKI: 0
PSCL5 TRANSLATION FROM L1D PREFETCHER ACCESS:      24315  HIT:      24315  MISS:          0  HIT %:        100  MISS %:          0   MPKI: 0
PSCL5 PREFETCH  REQUESTED:          0  ISSUED:          0  USEFUL:          0  USELESS:          0
PSCL5 USEFUL LOAD PREFETCHES:          0 PREFETCH ISSUED TO LOWER LEVEL:          0  ACCURACY: -nan
PSCL5 TIMELY PREFETCHES:          0 LATE PREFETCHES: 0 DROPPED PREFETCHES: 0
PSCL5 PREFETCHES SAME FILL-ORIGIN LEVEL: 0 DIFFERENT FILL-ORIGIN LEVEL: 0

PSCL4 TOTAL     ACCESS:    4006403  HIT:    4006403  MISS:          0  HIT %:        100  MISS %:          0   MPKI: 0
PSCL4 LOAD TRANSLATION ACCESS:    3982088  HIT:    3982088  MISS:          0  HIT %:        100  MISS %:          0   MPKI: 0
PSCL4 TRANSLATION FROM L1D PREFETCHER ACCESS:      24315  HIT:      24315  MISS:          0  HIT %:        100  MISS %:          0   MPKI: 0
PSCL4 PREFETCH  REQUESTED:          0  ISSUED:          0  USEFUL:          0  USELESS:          0
PSCL4 USEFUL LOAD PREFETCHES:          0 PREFETCH ISSUED TO LOWER LEVEL:          0  ACCURACY: -nan
PSCL4 TIMELY PREFETCHES:          0 LATE PREFETCHES: 0 DROPPED PREFETCHES: 0
PSCL4 PREFETCHES SAME FILL-ORIGIN LEVEL: 0 DIFFERENT FILL-ORIGIN LEVEL: 0

PSCL3 TOTAL     ACCESS:    4006403  HIT:    4006403  MISS:          0  HIT %:        100  MISS %:          0   MPKI: 0
PSCL3 LOAD TRANSLATION ACCESS:    3982088  HIT:    3982088  MISS:          0  HIT %:        100  MISS %:          0   MPKI: 0
PSCL3 TRANSLATION FROM L1D PREFETCHER ACCESS:      24315  HIT:      24315  MISS:          0  HIT %:        100  MISS %:          0   MPKI: 0
PSCL3 PREFETCH  REQUESTED:          0  ISSUED:          0  USEFUL:          0  USELESS:          0
PSCL3 USEFUL LOAD PREFETCHES:          0 PREFETCH ISSUED TO LOWER LEVEL:          0  ACCURACY: -nan
PSCL3 TIMELY PREFETCHES:          0 LATE PREFETCHES: 0 DROPPED PREFETCHES: 0
PSCL3 PREFETCHES SAME FILL-ORIGIN LEVEL: 0 DIFFERENT FILL-ORIGIN LEVEL: 0

PSCL2 TOTAL     ACCESS:    4006357  HIT:    3699809  MISS:     306548  HIT %:    92.3485  MISS %:    7.65154   MPKI: 1.53274
PSCL2 LOAD TRANSLATION ACCESS:    3988696  HIT:    3682148  MISS:     306548  HIT %:    92.3146  MISS %:    7.68542   MPKI: 1.53274
PSCL2 TRANSLATION FROM L1D PREFETCHER ACCESS:      17661  HIT:      17661  MISS:          0  HIT %:        100  MISS %:          0   MPKI: 0
PSCL2 PREFETCH  REQUESTED:          0  ISSUED:          0  USEFUL:          0  USELESS:          0
PSCL2 USEFUL LOAD PREFETCHES:          0 PREFETCH ISSUED TO LOWER LEVEL:          0  ACCURACY: -nan
PSCL2 TIMELY PREFETCHES:          0 LATE PREFETCHES: 0 DROPPED PREFETCHES: 0
PSCL2 PREFETCHES SAME FILL-ORIGIN LEVEL: 0 DIFFERENT FILL-ORIGIN LEVEL: 0

LLC TOTAL     ACCESS:   15251661  HIT:    5557953  MISS:    9693708  HIT %:    36.4416  MISS %:    63.5584   MPKI: 48.4685
LLC LOAD      ACCESS:    5752831  HIT:     211473  MISS:    5541358  HIT %:    3.67598  MISS %:     96.324   MPKI: 27.7068
LLC RFO       ACCESS:    2588985  HIT:      55239  MISS:    2533746  HIT %:    2.13362  MISS %:    97.8664   MPKI: 12.6687
LLC PREFETCH  ACCESS:    1540847  HIT:     215607  MISS:    1325240  HIT %:    13.9928  MISS %:    86.0072   MPKI: 6.6262
LLC WRITEBACK ACCESS:    4151077  HIT:    3965901  MISS:     185176  HIT %:    95.5391  MISS %:    4.46091   MPKI: 0.92588
LLC LOAD TRANSLATION ACCESS:    1214109  HIT:    1108040  MISS:     106069  HIT %:    91.2636  MISS %:    8.73637   MPKI: 0.530345
LLC TRANSLATION FROM L1D PREFETCHER ACCESS:       3812  HIT:       1693  MISS:       2119  HIT %:    44.4124  MISS %:    55.5876   MPKI: 0.010595
LLC PREFETCH  REQUESTED:          0  ISSUED:          0  USEFUL:      68162  USELESS:    5240224
LLC USEFUL LOAD PREFETCHES:      68162 PREFETCH ISSUED TO LOWER LEVEL:    5667729  ACCURACY: 1.20263
LLC TIMELY PREFETCHES:      68162 LATE PREFETCHES: 0 DROPPED PREFETCHES: 0
LLC PREFETCHES SAME FILL-ORIGIN LEVEL: 0 DIFFERENT FILL-ORIGIN LEVEL: 0
LLC AVERAGE MISS LATENCY: 3055.71 cycles
LLC RQ	ACCESS:   38389736	FORWARD:          0	MERGED:          0	TO_CACHE:   38389727
LLC WQ	ACCESS:   16693653	FORWARD:         14	MERGED:          0	TO_CACHE:   16693653
LLC PQ	ACCESS:    6224731	FORWARD:          0	MERGED:          0	TO_CACHE:    6224726

LLC Dense regions hint to LLC: 0

RAW hits: 6162108
Loads Generated: 57037479
Loads sent to L1D: 50875373
Stores Generated: 24744115
Stores sent to L1D: 24744122
Major fault: 0 Minor fault: 52251
Allocated PAGES: 209004

DRAM Statistics
 CHANNEL 0
 RQ ROW_BUFFER_HIT:    2525844  ROW_BUFFER_MISS:   35709026
 DBUS_CONGESTED:        140
 WQ ROW_BUFFER_HIT:     652367  ROW_BUFFER_MISS:   15617685  FULL:     290331

 AVG_CONGESTED_CYCLE: 7
 All warmup complete: 5
Channel 0 Bank busy for read cycles: 0
Channel 0 Bank busy for write cycles: 0
Channel 0
Rank 0
0banks busy for read cycles: 2428428
0banks busy for write cycles: 2199
1banks busy for read cycles: 38592133
1banks busy for write cycles: 2076633
2banks busy for read cycles: 104599883
2banks busy for write cycles: 2090955
3banks busy for read cycles: 163369505
3banks busy for write cycles: 1976562
4banks busy for read cycles: 185572850
4banks busy for write cycles: 1886757
5banks busy for read cycles: 176795448
5banks busy for write cycles: 1988384
6banks busy for read cycles: 157716936
6banks busy for write cycles: 7681306
7banks busy for read cycles: 149363532
7banks busy for write cycles: 77092504
8banks busy for read cycles: 192186740
8banks busy for write cycles: 372573889

CPU 0 Branch Prediction Accuracy: 90.3899% MPKI: 15.8954 Average ROB Occupancy at Mispredict: 27.6432
Branch types
NOT_BRANCH: 168923852 83.4504%
BRANCH_DIRECT_JUMP: 1724389 0.851869%
BRANCH_INDIRECT: 3 1.48204e-06%
BRANCH_CONDITIONAL: 31774152 15.6968%
BRANCH_DIRECT_CALL: 1004 0.000495988%
BRANCH_INDIRECT_CALL: 2 9.88024e-07%
BRANCH_RETURN: 1004 0.000495988%
BRANCH_OTHER: 0 0%


CPU 1 Branch Prediction Accuracy: 90.355% MPKI: 15.946 Average ROB Occupancy at Mispredict: 27.7554
Branch types
NOT_BRANCH: 168470649 83.4613%
BRANCH_DIRECT_JUMP: 1724804 0.854477%
BRANCH_INDIRECT: 3 1.48622e-06%
BRANCH_CONDITIONAL: 31657819 15.6835%
BRANCH_DIRECT_CALL: 1004 0.000497387%
BRANCH_INDIRECT_CALL: 2 9.90811e-07%
BRANCH_RETURN: 1004 0.000497387%
BRANCH_OTHER: 0 0%


CPU 2 Branch Prediction Accuracy: 90.3037% MPKI: 16.0979 Average ROB Occupancy at Mispredict: 27.8048
Branch types
NOT_BRANCH: 166801966 83.3954%
BRANCH_DIRECT_JUMP: 1725187 0.862535%
BRANCH_INDIRECT: 3 1.4999e-06%
BRANCH_CONDITIONAL: 31484459 15.7412%
BRANCH_DIRECT_CALL: 995 0.000497466%
BRANCH_INDIRECT_CALL: 2 9.99932e-07%
BRANCH_RETURN: 997 0.000498466%
BRANCH_OTHER: 0 0%


CPU 3 Branch Prediction Accuracy: 90.3028% MPKI: 16.1039 Average ROB Occupancy at Mispredict: 27.832
Branch types
NOT_BRANCH: 166786478 83.3932%
BRANCH_DIRECT_JUMP: 1725498 0.862749%
BRANCH_INDIRECT: 3 1.5e-06%
BRANCH_CONDITIONAL: 31486030 15.743%
BRANCH_DIRECT_CALL: 995 0.0004975%
BRANCH_INDIRECT_CALL: 2 1e-06%
BRANCH_RETURN: 997 0.0004985%
BRANCH_OTHER: 0 0%

DRAM PAGES: 1048576
Allocated PAGES: 209004
