
*** ChampSim Multicore Out-of-Order Simulator ***

Warmup Instructions: 50000000
Simulation Instructions: 200000000
Number of CPUs: 4
LLC sets: 8192
LLC ways: 16
Off-chip DRAM Size: 4096 MB Channels: 1 Width: 64-bit Data Rate: 6400 MT/s
CPU 0 runs ./traces/ligra/ligra_BellmanFord.com-lj.ungraph.gcc_6.3.0_O3.drop_14000M.length_250M.champsimtrace.xz
.xz
CPU 1 runs ./traces/ligra/ligra_BellmanFord.com-lj.ungraph.gcc_6.3.0_O3.drop_14000M.length_250M.champsimtrace.xz
.xz
CPU 2 runs ./traces/ligra/ligra_BellmanFord.com-lj.ungraph.gcc_6.3.0_O3.drop_14000M.length_250M.champsimtrace.xz
.xz
CPU 3 runs ./traces/ligra/ligra_BellmanFord.com-lj.ungraph.gcc_6.3.0_O3.drop_14000M.length_250M.champsimtrace.xz
.xz
BTB has LRU replacement policy
ITLB has LRU replacement policy
DTLB has LRU replacement policy
STLB has LRU replacement policy
L1I has LRU replacement policy
History Sets: 8
History Ways: 16
BERTI Size: 16
BERTI Stride Size: 8
L1D has LRU replacement policy
Initialize SRRIP state for L2C
Initialize DRRIP state for LLC
BTB has LRU replacement policy
ITLB has LRU replacement policy
DTLB has LRU replacement policy
STLB has LRU replacement policy
L1I has LRU replacement policy
History Sets: 8
History Ways: 16
BERTI Size: 16
BERTI Stride Size: 8
L1D has LRU replacement policy
Initialize SRRIP state for L2C
Initialize DRRIP state for LLC
BTB has LRU replacement policy
ITLB has LRU replacement policy
DTLB has LRU replacement policy
STLB has LRU replacement policy
L1I has LRU replacement policy
History Sets: 8
History Ways: 16
BERTI Size: 16
BERTI Stride Size: 8
L1D has LRU replacement policy
Initialize SRRIP state for L2C
Initialize DRRIP state for LLC
BTB has LRU replacement policy
ITLB has LRU replacement policy
DTLB has LRU replacement policy
STLB has LRU replacement policy
L1I has LRU replacement policy
History Sets: 8
History Ways: 16
BERTI Size: 16
BERTI Stride Size: 8
L1D has LRU replacement policy
Initialize SRRIP state for L2C
Initialize DRRIP state for LLC
Heartbeat CPU 0 instructions: 10000000 cycles: 2880522 heartbeat IPC: 3.47159 cumulative IPC: 3.47159 (Simulation time: 0 hr 2 min 28 sec) 
Heartbeat CPU 1 instructions: 10000000 cycles: 2880524 heartbeat IPC: 3.47159 cumulative IPC: 3.47159 (Simulation time: 0 hr 2 min 28 sec) 
Heartbeat CPU 2 instructions: 10000000 cycles: 2880542 heartbeat IPC: 3.47157 cumulative IPC: 3.47157 (Simulation time: 0 hr 2 min 28 sec) 
Heartbeat CPU 3 instructions: 10000000 cycles: 2880546 heartbeat IPC: 3.47156 cumulative IPC: 3.47156 (Simulation time: 0 hr 2 min 28 sec) 
Heartbeat CPU 0 instructions: 20000002 cycles: 5755893 heartbeat IPC: 3.47781 cumulative IPC: 3.4747 (Simulation time: 0 hr 4 min 50 sec) 
Heartbeat CPU 1 instructions: 20000002 cycles: 5755894 heartbeat IPC: 3.47781 cumulative IPC: 3.4747 (Simulation time: 0 hr 4 min 50 sec) 
Heartbeat CPU 2 instructions: 20000002 cycles: 5755914 heartbeat IPC: 3.47781 cumulative IPC: 3.47469 (Simulation time: 0 hr 4 min 50 sec) 
Heartbeat CPU 3 instructions: 20000002 cycles: 5755917 heartbeat IPC: 3.47781 cumulative IPC: 3.47469 (Simulation time: 0 hr 4 min 50 sec) 
Heartbeat CPU 0 instructions: 30000000 cycles: 8633175 heartbeat IPC: 3.4755 cumulative IPC: 3.47497 (Simulation time: 0 hr 7 min 25 sec) 
Heartbeat CPU 1 instructions: 30000000 cycles: 8633176 heartbeat IPC: 3.4755 cumulative IPC: 3.47497 (Simulation time: 0 hr 7 min 25 sec) 
Heartbeat CPU 2 instructions: 30000000 cycles: 8633200 heartbeat IPC: 3.4755 cumulative IPC: 3.47496 (Simulation time: 0 hr 7 min 25 sec) 
Heartbeat CPU 3 instructions: 30000000 cycles: 8633202 heartbeat IPC: 3.4755 cumulative IPC: 3.47496 (Simulation time: 0 hr 7 min 25 sec) 
Heartbeat CPU 0 instructions: 40000001 cycles: 11510915 heartbeat IPC: 3.47495 cumulative IPC: 3.47496 (Simulation time: 0 hr 10 min 11 sec) 
Heartbeat CPU 1 instructions: 40000001 cycles: 11510918 heartbeat IPC: 3.47495 cumulative IPC: 3.47496 (Simulation time: 0 hr 10 min 11 sec) 
Heartbeat CPU 2 instructions: 40000001 cycles: 11510938 heartbeat IPC: 3.47495 cumulative IPC: 3.47496 (Simulation time: 0 hr 10 min 11 sec) 
Heartbeat CPU 3 instructions: 40000001 cycles: 11510939 heartbeat IPC: 3.47495 cumulative IPC: 3.47496 (Simulation time: 0 hr 10 min 11 sec) 
Heartbeat CPU 0 instructions: 50000003 cycles: 14392617 heartbeat IPC: 3.47017 cumulative IPC: 3.474 (Simulation time: 0 hr 12 min 44 sec) 
Heartbeat CPU 1 instructions: 50000003 cycles: 14392620 heartbeat IPC: 3.47017 cumulative IPC: 3.474 (Simulation time: 0 hr 12 min 44 sec) 
Heartbeat CPU 2 instructions: 50000003 cycles: 14392640 heartbeat IPC: 3.47017 cumulative IPC: 3.474 (Simulation time: 0 hr 12 min 44 sec) 
Heartbeat CPU 3 instructions: 50000003 cycles: 14392641 heartbeat IPC: 3.47017 cumulative IPC: 3.474 (Simulation time: 0 hr 12 min 44 sec) 

Warmup complete CPU 0 instructions: 50000099 cycles: 14392641 (Simulation time: 0 hr 12 min 44 sec) 
Warmup complete CPU 1 instructions: 50000087 cycles: 14392641 (Simulation time: 0 hr 12 min 44 sec) 
Warmup complete CPU 2 instructions: 50000007 cycles: 14392641 (Simulation time: 0 hr 12 min 44 sec) 
Warmup complete CPU 3 instructions: 50000003 cycles: 14392641 (Simulation time: 0 hr 12 min 44 sec) 

Heartbeat CPU 0 instructions: 60000002 cycles: 28929724 heartbeat IPC: 0.687895 cumulative IPC: 0.687889 (Simulation time: 0 hr 15 min 42 sec) 
Heartbeat CPU 1 instructions: 60000002 cycles: 28930219 heartbeat IPC: 0.687871 cumulative IPC: 0.687867 (Simulation time: 0 hr 15 min 42 sec) 
Heartbeat CPU 2 instructions: 60000002 cycles: 28930270 heartbeat IPC: 0.68787 cumulative IPC: 0.68787 (Simulation time: 0 hr 15 min 42 sec) 
Heartbeat CPU 3 instructions: 60000002 cycles: 28931154 heartbeat IPC: 0.687828 cumulative IPC: 0.687828 (Simulation time: 0 hr 15 min 42 sec) 
Heartbeat CPU 0 instructions: 70000002 cycles: 43441225 heartbeat IPC: 0.689109 cumulative IPC: 0.688498 (Simulation time: 0 hr 19 min 6 sec) 
Heartbeat CPU 1 instructions: 70000002 cycles: 43441376 heartbeat IPC: 0.689125 cumulative IPC: 0.688495 (Simulation time: 0 hr 19 min 6 sec) 
Heartbeat CPU 2 instructions: 70000002 cycles: 43441427 heartbeat IPC: 0.689125 cumulative IPC: 0.688497 (Simulation time: 0 hr 19 min 6 sec) 
Heartbeat CPU 3 instructions: 70000002 cycles: 43444894 heartbeat IPC: 0.689002 cumulative IPC: 0.688415 (Simulation time: 0 hr 19 min 6 sec) 
Heartbeat CPU 0 instructions: 80000003 cycles: 57953041 heartbeat IPC: 0.689094 cumulative IPC: 0.688697 (Simulation time: 0 hr 22 min 19 sec) 
Heartbeat CPU 1 instructions: 80000003 cycles: 57953092 heartbeat IPC: 0.689098 cumulative IPC: 0.688696 (Simulation time: 0 hr 22 min 19 sec) 
Heartbeat CPU 2 instructions: 80000003 cycles: 57953334 heartbeat IPC: 0.689089 cumulative IPC: 0.688694 (Simulation time: 0 hr 22 min 19 sec) 
Heartbeat CPU 3 instructions: 80000003 cycles: 57958009 heartbeat IPC: 0.689032 cumulative IPC: 0.68862 (Simulation time: 0 hr 22 min 19 sec) 
Heartbeat CPU 0 instructions: 90000000 cycles: 72424846 heartbeat IPC: 0.690999 cumulative IPC: 0.689271 (Simulation time: 0 hr 25 min 30 sec) 
Heartbeat CPU 1 instructions: 90000000 cycles: 72424907 heartbeat IPC: 0.690998 cumulative IPC: 0.68927 (Simulation time: 0 hr 25 min 30 sec) 
Heartbeat CPU 2 instructions: 90000000 cycles: 72425003 heartbeat IPC: 0.691005 cumulative IPC: 0.68927 (Simulation time: 0 hr 25 min 30 sec) 
Heartbeat CPU 3 instructions: 90000000 cycles: 72429160 heartbeat IPC: 0.69103 cumulative IPC: 0.689221 (Simulation time: 0 hr 25 min 30 sec) 
Heartbeat CPU 0 instructions: 100000002 cycles: 87012874 heartbeat IPC: 0.685494 cumulative IPC: 0.688512 (Simulation time: 0 hr 28 min 34 sec) 
Heartbeat CPU 1 instructions: 100000002 cycles: 87012982 heartbeat IPC: 0.685492 cumulative IPC: 0.688511 (Simulation time: 0 hr 28 min 34 sec) 
Heartbeat CPU 2 instructions: 100000002 cycles: 87013084 heartbeat IPC: 0.685491 cumulative IPC: 0.688511 (Simulation time: 0 hr 28 min 34 sec) 
Heartbeat CPU 3 instructions: 100000002 cycles: 87017173 heartbeat IPC: 0.685494 cumulative IPC: 0.688473 (Simulation time: 0 hr 28 min 34 sec) 
Heartbeat CPU 0 instructions: 110000000 cycles: 101601502 heartbeat IPC: 0.685465 cumulative IPC: 0.688002 (Simulation time: 0 hr 31 min 57 sec) 
Heartbeat CPU 1 instructions: 110000000 cycles: 101601607 heartbeat IPC: 0.685465 cumulative IPC: 0.688002 (Simulation time: 0 hr 31 min 57 sec) 
Heartbeat CPU 2 instructions: 110000000 cycles: 101601961 heartbeat IPC: 0.685454 cumulative IPC: 0.688 (Simulation time: 0 hr 31 min 57 sec) 
Heartbeat CPU 3 instructions: 110000000 cycles: 101607193 heartbeat IPC: 0.6854 cumulative IPC: 0.687959 (Simulation time: 0 hr 31 min 57 sec) 
Heartbeat CPU 0 instructions: 120000000 cycles: 116160130 heartbeat IPC: 0.686878 cumulative IPC: 0.687841 (Simulation time: 0 hr 35 min 16 sec) 
Heartbeat CPU 1 instructions: 120000000 cycles: 116160181 heartbeat IPC: 0.68688 cumulative IPC: 0.687841 (Simulation time: 0 hr 35 min 16 sec) 
Heartbeat CPU 2 instructions: 120000000 cycles: 116160234 heartbeat IPC: 0.686895 cumulative IPC: 0.687842 (Simulation time: 0 hr 35 min 16 sec) 
Heartbeat CPU 3 instructions: 120000000 cycles: 116165280 heartbeat IPC: 0.686903 cumulative IPC: 0.687808 (Simulation time: 0 hr 35 min 16 sec) 
Heartbeat CPU 0 instructions: 130000000 cycles: 130732953 heartbeat IPC: 0.686209 cumulative IPC: 0.687637 (Simulation time: 0 hr 38 min 7 sec) 
Heartbeat CPU 1 instructions: 130000000 cycles: 130733004 heartbeat IPC: 0.686209 cumulative IPC: 0.687637 (Simulation time: 0 hr 38 min 7 sec) 
Heartbeat CPU 2 instructions: 130000000 cycles: 130733055 heartbeat IPC: 0.686209 cumulative IPC: 0.687637 (Simulation time: 0 hr 38 min 7 sec) 
Heartbeat CPU 3 instructions: 130000000 cycles: 130737878 heartbeat IPC: 0.686219 cumulative IPC: 0.687609 (Simulation time: 0 hr 38 min 7 sec) 
Heartbeat CPU 0 instructions: 140000001 cycles: 145217393 heartbeat IPC: 0.690396 cumulative IPC: 0.687942 (Simulation time: 0 hr 41 min 14 sec) 
Heartbeat CPU 1 instructions: 140000001 cycles: 145217592 heartbeat IPC: 0.690389 cumulative IPC: 0.687941 (Simulation time: 0 hr 41 min 14 sec) 
Heartbeat CPU 2 instructions: 140000001 cycles: 145217919 heartbeat IPC: 0.690376 cumulative IPC: 0.68794 (Simulation time: 0 hr 41 min 14 sec) 
Heartbeat CPU 3 instructions: 140000001 cycles: 145223320 heartbeat IPC: 0.690348 cumulative IPC: 0.687912 (Simulation time: 0 hr 41 min 14 sec) 
Heartbeat CPU 0 instructions: 150000000 cycles: 159544945 heartbeat IPC: 0.697956 cumulative IPC: 0.688931 (Simulation time: 0 hr 44 min 21 sec) 
Heartbeat CPU 1 instructions: 150000000 cycles: 159544996 heartbeat IPC: 0.697963 cumulative IPC: 0.688931 (Simulation time: 0 hr 44 min 21 sec) 
Heartbeat CPU 2 instructions: 150000000 cycles: 159545502 heartbeat IPC: 0.697954 cumulative IPC: 0.688929 (Simulation time: 0 hr 44 min 21 sec) 
Heartbeat CPU 3 instructions: 150000000 cycles: 159550705 heartbeat IPC: 0.697964 cumulative IPC: 0.688904 (Simulation time: 0 hr 44 min 21 sec) 
Heartbeat CPU 0 instructions: 160000000 cycles: 173990843 heartbeat IPC: 0.692238 cumulative IPC: 0.68923 (Simulation time: 0 hr 47 min 22 sec) 
Heartbeat CPU 1 instructions: 160000000 cycles: 173990916 heartbeat IPC: 0.692237 cumulative IPC: 0.68923 (Simulation time: 0 hr 47 min 22 sec) 
Heartbeat CPU 2 instructions: 160000000 cycles: 173992139 heartbeat IPC: 0.692203 cumulative IPC: 0.689225 (Simulation time: 0 hr 47 min 22 sec) 
Heartbeat CPU 3 instructions: 160000000 cycles: 173996340 heartbeat IPC: 0.692251 cumulative IPC: 0.689207 (Simulation time: 0 hr 47 min 22 sec) 
Heartbeat CPU 0 instructions: 170000002 cycles: 188463813 heartbeat IPC: 0.690943 cumulative IPC: 0.689373 (Simulation time: 0 hr 50 min 27 sec) 
Heartbeat CPU 1 instructions: 170000002 cycles: 188463915 heartbeat IPC: 0.690942 cumulative IPC: 0.689372 (Simulation time: 0 hr 50 min 27 sec) 
Heartbeat CPU 2 instructions: 170000002 cycles: 188465476 heartbeat IPC: 0.690926 cumulative IPC: 0.689367 (Simulation time: 0 hr 50 min 27 sec) 
Heartbeat CPU 3 instructions: 170000002 cycles: 188466148 heartbeat IPC: 0.691094 cumulative IPC: 0.689364 (Simulation time: 0 hr 50 min 27 sec) 
Heartbeat CPU 0 instructions: 180000000 cycles: 202843324 heartbeat IPC: 0.695434 cumulative IPC: 0.689835 (Simulation time: 0 hr 53 min 12 sec) 
Heartbeat CPU 1 instructions: 180000000 cycles: 202843375 heartbeat IPC: 0.695436 cumulative IPC: 0.689835 (Simulation time: 0 hr 53 min 12 sec) 
Heartbeat CPU 2 instructions: 180000000 cycles: 202847409 heartbeat IPC: 0.695317 cumulative IPC: 0.689821 (Simulation time: 0 hr 53 min 13 sec) 
Heartbeat CPU 3 instructions: 180000000 cycles: 202847472 heartbeat IPC: 0.695346 cumulative IPC: 0.68982 (Simulation time: 0 hr 53 min 13 sec) 
Heartbeat CPU 0 instructions: 190000001 cycles: 217280380 heartbeat IPC: 0.692662 cumulative IPC: 0.690036 (Simulation time: 0 hr 55 min 55 sec) 
Heartbeat CPU 1 instructions: 190000001 cycles: 217280431 heartbeat IPC: 0.692662 cumulative IPC: 0.690036 (Simulation time: 0 hr 55 min 55 sec) 
Heartbeat CPU 2 instructions: 190000001 cycles: 217284545 heartbeat IPC: 0.692658 cumulative IPC: 0.690023 (Simulation time: 0 hr 55 min 55 sec) 
Heartbeat CPU 3 instructions: 190000001 cycles: 217284647 heartbeat IPC: 0.692656 cumulative IPC: 0.690022 (Simulation time: 0 hr 55 min 55 sec) 
Heartbeat CPU 0 instructions: 200000002 cycles: 231513086 heartbeat IPC: 0.702607 cumulative IPC: 0.69086 (Simulation time: 0 hr 58 min 58 sec) 
Heartbeat CPU 1 instructions: 200000002 cycles: 231513188 heartbeat IPC: 0.702605 cumulative IPC: 0.69086 (Simulation time: 0 hr 58 min 58 sec) 
Heartbeat CPU 2 instructions: 200000002 cycles: 231517896 heartbeat IPC: 0.702575 cumulative IPC: 0.690845 (Simulation time: 0 hr 58 min 58 sec) 
Heartbeat CPU 3 instructions: 200000002 cycles: 231519331 heartbeat IPC: 0.70251 cumulative IPC: 0.690841 (Simulation time: 0 hr 58 min 58 sec) 
Heartbeat CPU 0 instructions: 210000000 cycles: 245938510 heartbeat IPC: 0.69322 cumulative IPC: 0.691007 (Simulation time: 1 hr 2 min 11 sec) 
Heartbeat CPU 1 instructions: 210000000 cycles: 245938632 heartbeat IPC: 0.693219 cumulative IPC: 0.691007 (Simulation time: 1 hr 2 min 11 sec) 
Heartbeat CPU 2 instructions: 210000000 cycles: 245942780 heartbeat IPC: 0.693246 cumulative IPC: 0.690995 (Simulation time: 1 hr 2 min 11 sec) 
Heartbeat CPU 3 instructions: 210000000 cycles: 245945154 heartbeat IPC: 0.693201 cumulative IPC: 0.690988 (Simulation time: 1 hr 2 min 11 sec) 
Heartbeat CPU 0 instructions: 220000000 cycles: 260429182 heartbeat IPC: 0.690099 cumulative IPC: 0.690954 (Simulation time: 1 hr 5 min 27 sec) 
Heartbeat CPU 1 instructions: 220000000 cycles: 260429284 heartbeat IPC: 0.6901 cumulative IPC: 0.690954 (Simulation time: 1 hr 5 min 27 sec) 
Heartbeat CPU 2 instructions: 220000000 cycles: 260434214 heartbeat IPC: 0.690063 cumulative IPC: 0.69094 (Simulation time: 1 hr 5 min 27 sec) 
Heartbeat CPU 3 instructions: 220000000 cycles: 260438443 heartbeat IPC: 0.689974 cumulative IPC: 0.690928 (Simulation time: 1 hr 5 min 27 sec) 
Heartbeat CPU 0 instructions: 230000000 cycles: 274783290 heartbeat IPC: 0.696665 cumulative IPC: 0.691269 (Simulation time: 1 hr 8 min 44 sec) 
Heartbeat CPU 1 instructions: 230000000 cycles: 274783392 heartbeat IPC: 0.696665 cumulative IPC: 0.691268 (Simulation time: 1 hr 8 min 44 sec) 
Heartbeat CPU 2 instructions: 230000000 cycles: 274787661 heartbeat IPC: 0.696697 cumulative IPC: 0.691257 (Simulation time: 1 hr 8 min 44 sec) 
Heartbeat CPU 3 instructions: 230000000 cycles: 274791364 heartbeat IPC: 0.696722 cumulative IPC: 0.691248 (Simulation time: 1 hr 8 min 44 sec) 
Heartbeat CPU 0 instructions: 240000002 cycles: 289108004 heartbeat IPC: 0.698094 cumulative IPC: 0.691625 (Simulation time: 1 hr 12 min 4 sec) 
Heartbeat CPU 1 instructions: 240000002 cycles: 289108106 heartbeat IPC: 0.698094 cumulative IPC: 0.691624 (Simulation time: 1 hr 12 min 4 sec) 
Heartbeat CPU 2 instructions: 240000002 cycles: 289112323 heartbeat IPC: 0.698097 cumulative IPC: 0.691614 (Simulation time: 1 hr 12 min 4 sec) 
Heartbeat CPU 3 instructions: 240000002 cycles: 289116791 heartbeat IPC: 0.69806 cumulative IPC: 0.691603 (Simulation time: 1 hr 12 min 4 sec) 
*** Reached end of trace for Core: 0 Repeating trace: ./traces/ligra/ligra_BellmanFord.com-lj.ungraph.gcc_6.3.0_O3.drop_14000M.length_250M.champsimtrace.xz
*** Reached end of trace for Core: 1 Repeating trace: ./traces/ligra/ligra_BellmanFord.com-lj.ungraph.gcc_6.3.0_O3.drop_14000M.length_250M.champsimtrace.xz
Heartbeat CPU 0 instructions: 250000000 cycles: 303434539 heartbeat IPC: 0.698005 cumulative IPC: 0.691941 (Simulation time: 1 hr 15 min 2 sec) 
Heartbeat CPU 1 instructions: 250000000 cycles: 303434590 heartbeat IPC: 0.698008 cumulative IPC: 0.691941 (Simulation time: 1 hr 15 min 2 sec) 
Finished CPU 0 instructions: 200000000 cycles: 289043271 cumulative IPC: 0.691938 (Simulation time: 1 hr 15 min 2 sec) 
Finished CPU 1 instructions: 200000000 cycles: 289043319 cumulative IPC: 0.691938 (Simulation time: 1 hr 15 min 2 sec) 
*** Reached end of trace for Core: 2 Repeating trace: ./traces/ligra/ligra_BellmanFord.com-lj.ungraph.gcc_6.3.0_O3.drop_14000M.length_250M.champsimtrace.xz
Heartbeat CPU 2 instructions: 250000000 cycles: 303440082 heartbeat IPC: 0.697946 cumulative IPC: 0.691928 (Simulation time: 1 hr 15 min 2 sec) 
Finished CPU 2 instructions: 200000000 cycles: 289047444 cumulative IPC: 0.691928 (Simulation time: 1 hr 15 min 2 sec) 
*** Reached end of trace for Core: 3 Repeating trace: ./traces/ligra/ligra_BellmanFord.com-lj.ungraph.gcc_6.3.0_O3.drop_14000M.length_250M.champsimtrace.xz
Heartbeat CPU 3 instructions: 250000000 cycles: 303444601 heartbeat IPC: 0.697943 cumulative IPC: 0.691917 (Simulation time: 1 hr 15 min 2 sec) 
Finished CPU 3 instructions: 200000001 cycles: 289051961 cumulative IPC: 0.691917 (Simulation time: 1 hr 15 min 2 sec) 

ChampSim completed all CPUs

Total Simulation Statistics (not including warmup)

CPU 0 cumulative IPC: 0.691934 instructions: 200004993 cycles: 289051961
ITLB TOTAL     ACCESS:   34800170  HIT:   34800170  MISS:          0  HIT %:        100  MISS %:          0   MPKI: 0
ITLB LOAD      ACCESS:          0  HIT:          0  MISS:          0  HIT %:       -nan  MISS %:       -nan   MPKI: 0
ITLB RFO       ACCESS:          0  HIT:          0  MISS:          0  HIT %:       -nan  MISS %:       -nan   MPKI: 0
ITLB PREFETCH  ACCESS:          0  HIT:          0  MISS:          0  HIT %:       -nan  MISS %:       -nan   MPKI: 0
ITLB WRITEBACK ACCESS:          0  HIT:          0  MISS:          0  HIT %:       -nan  MISS %:       -nan   MPKI: 0
DTLB TOTAL     ACCESS:   32666786  HIT:   32662116  MISS:       4670  HIT %:    99.9857  MISS %:  0.0142959   MPKI: 0.0233494
DTLB LOAD      ACCESS:          0  HIT:          0  MISS:          0  HIT %:       -nan  MISS %:       -nan   MPKI: 0
DTLB RFO       ACCESS:          0  HIT:          0  MISS:          0  HIT %:       -nan  MISS %:       -nan   MPKI: 0
DTLB PREFETCH  ACCESS:          0  HIT:          0  MISS:          0  HIT %:       -nan  MISS %:       -nan   MPKI: 0
DTLB WRITEBACK ACCESS:          0  HIT:          0  MISS:          0  HIT %:       -nan  MISS %:       -nan   MPKI: 0
STLB TOTAL     ACCESS:    5016666  HIT:    5011996  MISS:       4670  HIT %:    99.9069  MISS %:  0.0930897   MPKI: 0.0233494
STLB LOAD      ACCESS:          0  HIT:          0  MISS:          0  HIT %:       -nan  MISS %:       -nan   MPKI: 0
STLB RFO       ACCESS:          0  HIT:          0  MISS:          0  HIT %:       -nan  MISS %:       -nan   MPKI: 0
STLB PREFETCH  ACCESS:          0  HIT:          0  MISS:          0  HIT %:       -nan  MISS %:       -nan   MPKI: 0
STLB WRITEBACK ACCESS:          0  HIT:          0  MISS:          0  HIT %:       -nan  MISS %:       -nan   MPKI: 0
L1D TOTAL     ACCESS:   51197853  HIT:   50899260  MISS:     298593  HIT %:    99.4168  MISS %:   0.583214   MPKI: 1.49293
L1D LOAD      ACCESS:   24635596  HIT:   24626592  MISS:       9004  HIT %:    99.9635  MISS %:  0.0365487   MPKI: 0.0450189
L1D RFO       ACCESS:   13477533  HIT:   13407195  MISS:      70338  HIT %:    99.4781  MISS %:   0.521891   MPKI: 0.351681
L1D PREFETCH  ACCESS:   13084724  HIT:   12865473  MISS:     219251  HIT %:    98.3244  MISS %:    1.67563   MPKI: 1.09623
L1D WRITEBACK ACCESS:          0  HIT:          0  MISS:          0  HIT %:       -nan  MISS %:       -nan   MPKI: 0
L1I TOTAL     ACCESS:   38564033  HIT:   38564033  MISS:          0  HIT %:        100  MISS %:          0   MPKI: 0
L1I LOAD      ACCESS:   38564033  HIT:   38564033  MISS:          0  HIT %:        100  MISS %:          0   MPKI: 0
L1I RFO       ACCESS:          0  HIT:          0  MISS:          0  HIT %:       -nan  MISS %:       -nan   MPKI: 0
L1I PREFETCH  ACCESS:          0  HIT:          0  MISS:          0  HIT %:       -nan  MISS %:       -nan   MPKI: 0
L1I WRITEBACK ACCESS:          0  HIT:          0  MISS:          0  HIT %:       -nan  MISS %:       -nan   MPKI: 0
L2C TOTAL     ACCESS:   11333602  HIT:   11010172  MISS:     323430  HIT %:    97.1463  MISS %:    2.85373   MPKI: 1.61711
L2C LOAD      ACCESS:       8652  HIT:       5433  MISS:       3219  HIT %:    62.7947  MISS %:    37.2053   MPKI: 0.0160946
L2C RFO       ACCESS:      70338  HIT:          0  MISS:      70338  HIT %:          0  MISS %:        100   MPKI: 0.351681
L2C PREFETCH  ACCESS:   10732330  HIT:   10507289  MISS:     225041  HIT %:    97.9031  MISS %:    2.09685   MPKI: 1.12518
L2C WRITEBACK ACCESS:      70329  HIT:      46097  MISS:      24232  HIT %:    65.5448  MISS %:    34.4552   MPKI: 0.121157
PSCL5 TOTAL     ACCESS:     451953  HIT:     451953  MISS:          0  HIT %:        100  MISS %:          0   MPKI: 0
PSCL5 LOAD      ACCESS:          0  HIT:          0  MISS:          0  HIT %:       -nan  MISS %:       -nan   MPKI: 0
PSCL5 RFO       ACCESS:          0  HIT:          0  MISS:          0  HIT %:       -nan  MISS %:       -nan   MPKI: 0
PSCL5 PREFETCH  ACCESS:          0  HIT:          0  MISS:          0  HIT %:       -nan  MISS %:       -nan   MPKI: 0
PSCL5 WRITEBACK ACCESS:          0  HIT:          0  MISS:          0  HIT %:       -nan  MISS %:       -nan   MPKI: 0
PSCL4 TOTAL     ACCESS:     451953  HIT:     451953  MISS:          0  HIT %:        100  MISS %:          0   MPKI: 0
PSCL4 LOAD      ACCESS:          0  HIT:          0  MISS:          0  HIT %:       -nan  MISS %:       -nan   MPKI: 0
PSCL4 RFO       ACCESS:          0  HIT:          0  MISS:          0  HIT %:       -nan  MISS %:       -nan   MPKI: 0
PSCL4 PREFETCH  ACCESS:          0  HIT:          0  MISS:          0  HIT %:       -nan  MISS %:       -nan   MPKI: 0
PSCL4 WRITEBACK ACCESS:          0  HIT:          0  MISS:          0  HIT %:       -nan  MISS %:       -nan   MPKI: 0
PSCL3 TOTAL     ACCESS:     451953  HIT:     451953  MISS:          0  HIT %:        100  MISS %:          0   MPKI: 0
PSCL3 LOAD      ACCESS:          0  HIT:          0  MISS:          0  HIT %:       -nan  MISS %:       -nan   MPKI: 0
PSCL3 RFO       ACCESS:          0  HIT:          0  MISS:          0  HIT %:       -nan  MISS %:       -nan   MPKI: 0
PSCL3 PREFETCH  ACCESS:          0  HIT:          0  MISS:          0  HIT %:       -nan  MISS %:       -nan   MPKI: 0
PSCL3 WRITEBACK ACCESS:          0  HIT:          0  MISS:          0  HIT %:       -nan  MISS %:       -nan   MPKI: 0
PSCL2 TOTAL     ACCESS:     451464  HIT:     451456  MISS:          8  HIT %:    99.9982  MISS %: 0.00177201   MPKI: 3.9999e-05
PSCL2 LOAD      ACCESS:          0  HIT:          0  MISS:          0  HIT %:       -nan  MISS %:       -nan   MPKI: 0
PSCL2 RFO       ACCESS:          0  HIT:          0  MISS:          0  HIT %:       -nan  MISS %:       -nan   MPKI: 0
PSCL2 PREFETCH  ACCESS:          0  HIT:          0  MISS:          0  HIT %:       -nan  MISS %:       -nan   MPKI: 0
PSCL2 WRITEBACK ACCESS:          0  HIT:          0  MISS:          0  HIT %:       -nan  MISS %:       -nan   MPKI: 0
LLC TOTAL     ACCESS:     369913  HIT:      65200  MISS:     304713  HIT %:    17.6258  MISS %:    82.3742   MPKI: 1.52353
LLC LOAD      ACCESS:       3162  HIT:          0  MISS:       3162  HIT %:          0  MISS %:        100   MPKI: 0.0158096
LLC RFO       ACCESS:      70338  HIT:          0  MISS:      70338  HIT %:          0  MISS %:        100   MPKI: 0.351681
LLC PREFETCH  ACCESS:     225098  HIT:          0  MISS:     225098  HIT %:          0  MISS %:        100   MPKI: 1.12546
LLC WRITEBACK ACCESS:      70715  HIT:      65195  MISS:       5520  HIT %:     92.194  MISS %:    7.80598   MPKI: 0.0275993

RAW hits: 2885846
Loads Generated: 31468156
Loads sent to L1D: 28582308
Stores Generated: 13504559
Stores sent to L1D: 13504555

CPU 1 cumulative IPC: 0.691934 instructions: 200004985 cycles: 289051961
ITLB TOTAL     ACCESS:   34800155  HIT:   34800155  MISS:          0  HIT %:        100  MISS %:          0   MPKI: 0
ITLB LOAD      ACCESS:          0  HIT:          0  MISS:          0  HIT %:       -nan  MISS %:       -nan   MPKI: 0
ITLB RFO       ACCESS:          0  HIT:          0  MISS:          0  HIT %:       -nan  MISS %:       -nan   MPKI: 0
ITLB PREFETCH  ACCESS:          0  HIT:          0  MISS:          0  HIT %:       -nan  MISS %:       -nan   MPKI: 0
ITLB WRITEBACK ACCESS:          0  HIT:          0  MISS:          0  HIT %:       -nan  MISS %:       -nan   MPKI: 0
DTLB TOTAL     ACCESS:   32666998  HIT:   32662328  MISS:       4670  HIT %:    99.9857  MISS %:  0.0142958   MPKI: 0.0233494
DTLB LOAD      ACCESS:          0  HIT:          0  MISS:          0  HIT %:       -nan  MISS %:       -nan   MPKI: 0
DTLB RFO       ACCESS:          0  HIT:          0  MISS:          0  HIT %:       -nan  MISS %:       -nan   MPKI: 0
DTLB PREFETCH  ACCESS:          0  HIT:          0  MISS:          0  HIT %:       -nan  MISS %:       -nan   MPKI: 0
DTLB WRITEBACK ACCESS:          0  HIT:          0  MISS:          0  HIT %:       -nan  MISS %:       -nan   MPKI: 0
STLB TOTAL     ACCESS:    5026140  HIT:    5021470  MISS:       4670  HIT %:    99.9071  MISS %:  0.0929142   MPKI: 0.0233494
STLB LOAD      ACCESS:          0  HIT:          0  MISS:          0  HIT %:       -nan  MISS %:       -nan   MPKI: 0
STLB RFO       ACCESS:          0  HIT:          0  MISS:          0  HIT %:       -nan  MISS %:       -nan   MPKI: 0
STLB PREFETCH  ACCESS:          0  HIT:          0  MISS:          0  HIT %:       -nan  MISS %:       -nan   MPKI: 0
STLB WRITEBACK ACCESS:          0  HIT:          0  MISS:          0  HIT %:       -nan  MISS %:       -nan   MPKI: 0
L1D TOTAL     ACCESS:   51233814  HIT:   50935218  MISS:     298596  HIT %:    99.4172  MISS %:    0.58281   MPKI: 1.49294
L1D LOAD      ACCESS:   24635744  HIT:   24626801  MISS:       8943  HIT %:    99.9637  MISS %:  0.0363009   MPKI: 0.0447139
L1D RFO       ACCESS:   13486848  HIT:   13416510  MISS:      70338  HIT %:    99.4785  MISS %:    0.52153   MPKI: 0.351681
L1D PREFETCH  ACCESS:   13111222  HIT:   12891907  MISS:     219315  HIT %:    98.3273  MISS %:    1.67273   MPKI: 1.09655
L1D WRITEBACK ACCESS:          0  HIT:          0  MISS:          0  HIT %:       -nan  MISS %:       -nan   MPKI: 0
L1I TOTAL     ACCESS:   38564015  HIT:   38564015  MISS:          0  HIT %:        100  MISS %:          0   MPKI: 0
L1I LOAD      ACCESS:   38564015  HIT:   38564015  MISS:          0  HIT %:        100  MISS %:          0   MPKI: 0
L1I RFO       ACCESS:          0  HIT:          0  MISS:          0  HIT %:       -nan  MISS %:       -nan   MPKI: 0
L1I PREFETCH  ACCESS:          0  HIT:          0  MISS:          0  HIT %:       -nan  MISS %:       -nan   MPKI: 0
L1I WRITEBACK ACCESS:          0  HIT:          0  MISS:          0  HIT %:       -nan  MISS %:       -nan   MPKI: 0
L2C TOTAL     ACCESS:   11331047  HIT:   11007432  MISS:     323615  HIT %:     97.144  MISS %:      2.856   MPKI: 1.61803
L2C LOAD      ACCESS:       8581  HIT:       5371  MISS:       3210  HIT %:    62.5918  MISS %:    37.4082   MPKI: 0.0160496
L2C RFO       ACCESS:      70338  HIT:          0  MISS:      70338  HIT %:          0  MISS %:        100   MPKI: 0.351681
L2C PREFETCH  ACCESS:   10730193  HIT:   10505123  MISS:     225070  HIT %:    97.9025  MISS %:    2.09754   MPKI: 1.12532
L2C WRITEBACK ACCESS:      70331  HIT:      45930  MISS:      24401  HIT %:    65.3055  MISS %:    34.6945   MPKI: 0.122002
PSCL5 TOTAL     ACCESS:     451604  HIT:     451604  MISS:          0  HIT %:        100  MISS %:          0   MPKI: 0
PSCL5 LOAD      ACCESS:          0  HIT:          0  MISS:          0  HIT %:       -nan  MISS %:       -nan   MPKI: 0
PSCL5 RFO       ACCESS:          0  HIT:          0  MISS:          0  HIT %:       -nan  MISS %:       -nan   MPKI: 0
PSCL5 PREFETCH  ACCESS:          0  HIT:          0  MISS:          0  HIT %:       -nan  MISS %:       -nan   MPKI: 0
PSCL5 WRITEBACK ACCESS:          0  HIT:          0  MISS:          0  HIT %:       -nan  MISS %:       -nan   MPKI: 0
PSCL4 TOTAL     ACCESS:     451604  HIT:     451604  MISS:          0  HIT %:        100  MISS %:          0   MPKI: 0
PSCL4 LOAD      ACCESS:          0  HIT:          0  MISS:          0  HIT %:       -nan  MISS %:       -nan   MPKI: 0
PSCL4 RFO       ACCESS:          0  HIT:          0  MISS:          0  HIT %:       -nan  MISS %:       -nan   MPKI: 0
PSCL4 PREFETCH  ACCESS:          0  HIT:          0  MISS:          0  HIT %:       -nan  MISS %:       -nan   MPKI: 0
PSCL4 WRITEBACK ACCESS:          0  HIT:          0  MISS:          0  HIT %:       -nan  MISS %:       -nan   MPKI: 0
PSCL3 TOTAL     ACCESS:     451604  HIT:     451604  MISS:          0  HIT %:        100  MISS %:          0   MPKI: 0
PSCL3 LOAD      ACCESS:          0  HIT:          0  MISS:          0  HIT %:       -nan  MISS %:       -nan   MPKI: 0
PSCL3 RFO       ACCESS:          0  HIT:          0  MISS:          0  HIT %:       -nan  MISS %:       -nan   MPKI: 0
PSCL3 PREFETCH  ACCESS:          0  HIT:          0  MISS:          0  HIT %:       -nan  MISS %:       -nan   MPKI: 0
PSCL3 WRITEBACK ACCESS:          0  HIT:          0  MISS:          0  HIT %:       -nan  MISS %:       -nan   MPKI: 0
PSCL2 TOTAL     ACCESS:     451054  HIT:     451046  MISS:          8  HIT %:    99.9982  MISS %: 0.00177362   MPKI: 3.9999e-05
PSCL2 LOAD      ACCESS:          0  HIT:          0  MISS:          0  HIT %:       -nan  MISS %:       -nan   MPKI: 0
PSCL2 RFO       ACCESS:          0  HIT:          0  MISS:          0  HIT %:       -nan  MISS %:       -nan   MPKI: 0
PSCL2 PREFETCH  ACCESS:          0  HIT:          0  MISS:          0  HIT %:       -nan  MISS %:       -nan   MPKI: 0
PSCL2 WRITEBACK ACCESS:          0  HIT:          0  MISS:          0  HIT %:       -nan  MISS %:       -nan   MPKI: 0
LLC TOTAL     ACCESS:     370054  HIT:      65257  MISS:     304797  HIT %:    17.6345  MISS %:    82.3655   MPKI: 1.52395
LLC LOAD      ACCESS:       3166  HIT:          0  MISS:       3166  HIT %:          0  MISS %:        100   MPKI: 0.0158296
LLC RFO       ACCESS:      70338  HIT:          0  MISS:      70338  HIT %:          0  MISS %:        100   MPKI: 0.351681
LLC PREFETCH  ACCESS:     225114  HIT:          4  MISS:     225110  HIT %: 0.00177688  MISS %:    99.9982   MPKI: 1.12552
LLC WRITEBACK ACCESS:      70840  HIT:      65252  MISS:       5588  HIT %:    92.1118  MISS %:     7.8882   MPKI: 0.0279393

RAW hits: 2885709
Loads Generated: 31468147
Loads sent to L1D: 28582438
Stores Generated: 13504549
Stores sent to L1D: 13504549

CPU 2 cumulative IPC: 0.691924 instructions: 200001962 cycles: 289051961
ITLB TOTAL     ACCESS:   34799614  HIT:   34799614  MISS:          0  HIT %:        100  MISS %:          0   MPKI: 0
ITLB LOAD      ACCESS:          0  HIT:          0  MISS:          0  HIT %:       -nan  MISS %:       -nan   MPKI: 0
ITLB RFO       ACCESS:          0  HIT:          0  MISS:          0  HIT %:       -nan  MISS %:       -nan   MPKI: 0
ITLB PREFETCH  ACCESS:          0  HIT:          0  MISS:          0  HIT %:       -nan  MISS %:       -nan   MPKI: 0
ITLB WRITEBACK ACCESS:          0  HIT:          0  MISS:          0  HIT %:       -nan  MISS %:       -nan   MPKI: 0
DTLB TOTAL     ACCESS:   32666433  HIT:   32661763  MISS:       4670  HIT %:    99.9857  MISS %:   0.014296   MPKI: 0.0233498
DTLB LOAD      ACCESS:          0  HIT:          0  MISS:          0  HIT %:       -nan  MISS %:       -nan   MPKI: 0
DTLB RFO       ACCESS:          0  HIT:          0  MISS:          0  HIT %:       -nan  MISS %:       -nan   MPKI: 0
DTLB PREFETCH  ACCESS:          0  HIT:          0  MISS:          0  HIT %:       -nan  MISS %:       -nan   MPKI: 0
DTLB WRITEBACK ACCESS:          0  HIT:          0  MISS:          0  HIT %:       -nan  MISS %:       -nan   MPKI: 0
STLB TOTAL     ACCESS:    5016424  HIT:    5011754  MISS:       4670  HIT %:    99.9069  MISS %:  0.0930942   MPKI: 0.0233498
STLB LOAD      ACCESS:          0  HIT:          0  MISS:          0  HIT %:       -nan  MISS %:       -nan   MPKI: 0
STLB RFO       ACCESS:          0  HIT:          0  MISS:          0  HIT %:       -nan  MISS %:       -nan   MPKI: 0
STLB PREFETCH  ACCESS:          0  HIT:          0  MISS:          0  HIT %:       -nan  MISS %:       -nan   MPKI: 0
STLB WRITEBACK ACCESS:          0  HIT:          0  MISS:          0  HIT %:       -nan  MISS %:       -nan   MPKI: 0
L1D TOTAL     ACCESS:   51197859  HIT:   50899266  MISS:     298593  HIT %:    99.4168  MISS %:   0.583214   MPKI: 1.49295
L1D LOAD      ACCESS:   24635352  HIT:   24626742  MISS:       8610  HIT %:    99.9651  MISS %:  0.0349498   MPKI: 0.0430496
L1D RFO       ACCESS:   13483243  HIT:   13412906  MISS:      70337  HIT %:    99.4783  MISS %:   0.521662   MPKI: 0.351682
L1D PREFETCH  ACCESS:   13079264  HIT:   12859618  MISS:     219646  HIT %:    98.3207  MISS %:    1.67935   MPKI: 1.09822
L1D WRITEBACK ACCESS:          0  HIT:          0  MISS:          0  HIT %:       -nan  MISS %:       -nan   MPKI: 0
L1I TOTAL     ACCESS:   38563418  HIT:   38563418  MISS:          0  HIT %:        100  MISS %:          0   MPKI: 0
L1I LOAD      ACCESS:   38563418  HIT:   38563418  MISS:          0  HIT %:        100  MISS %:          0   MPKI: 0
L1I RFO       ACCESS:          0  HIT:          0  MISS:          0  HIT %:       -nan  MISS %:       -nan   MPKI: 0
L1I PREFETCH  ACCESS:          0  HIT:          0  MISS:          0  HIT %:       -nan  MISS %:       -nan   MPKI: 0
L1I WRITEBACK ACCESS:          0  HIT:          0  MISS:          0  HIT %:       -nan  MISS %:       -nan   MPKI: 0
L2C TOTAL     ACCESS:   11425914  HIT:   11102384  MISS:     323530  HIT %:    97.1685  MISS %:    2.83155   MPKI: 1.61763
L2C LOAD      ACCESS:       8257  HIT:       5040  MISS:       3217  HIT %:    61.0391  MISS %:    38.9609   MPKI: 0.0160848
L2C RFO       ACCESS:      70337  HIT:          0  MISS:      70337  HIT %:          0  MISS %:        100   MPKI: 0.351682
L2C PREFETCH  ACCESS:   10826347  HIT:   10601299  MISS:     225048  HIT %:    97.9213  MISS %:    2.07871   MPKI: 1.12523
L2C WRITEBACK ACCESS:      70331  HIT:      46003  MISS:      24328  HIT %:    65.4093  MISS %:    34.5907   MPKI: 0.121639
PSCL5 TOTAL     ACCESS:     450642  HIT:     450642  MISS:          0  HIT %:        100  MISS %:          0   MPKI: 0
PSCL5 LOAD      ACCESS:          0  HIT:          0  MISS:          0  HIT %:       -nan  MISS %:       -nan   MPKI: 0
PSCL5 RFO       ACCESS:          0  HIT:          0  MISS:          0  HIT %:       -nan  MISS %:       -nan   MPKI: 0
PSCL5 PREFETCH  ACCESS:          0  HIT:          0  MISS:          0  HIT %:       -nan  MISS %:       -nan   MPKI: 0
PSCL5 WRITEBACK ACCESS:          0  HIT:          0  MISS:          0  HIT %:       -nan  MISS %:       -nan   MPKI: 0
PSCL4 TOTAL     ACCESS:     450642  HIT:     450642  MISS:          0  HIT %:        100  MISS %:          0   MPKI: 0
PSCL4 LOAD      ACCESS:          0  HIT:          0  MISS:          0  HIT %:       -nan  MISS %:       -nan   MPKI: 0
PSCL4 RFO       ACCESS:          0  HIT:          0  MISS:          0  HIT %:       -nan  MISS %:       -nan   MPKI: 0
PSCL4 PREFETCH  ACCESS:          0  HIT:          0  MISS:          0  HIT %:       -nan  MISS %:       -nan   MPKI: 0
PSCL4 WRITEBACK ACCESS:          0  HIT:          0  MISS:          0  HIT %:       -nan  MISS %:       -nan   MPKI: 0
PSCL3 TOTAL     ACCESS:     450642  HIT:     450642  MISS:          0  HIT %:        100  MISS %:          0   MPKI: 0
PSCL3 LOAD      ACCESS:          0  HIT:          0  MISS:          0  HIT %:       -nan  MISS %:       -nan   MPKI: 0
PSCL3 RFO       ACCESS:          0  HIT:          0  MISS:          0  HIT %:       -nan  MISS %:       -nan   MPKI: 0
PSCL3 PREFETCH  ACCESS:          0  HIT:          0  MISS:          0  HIT %:       -nan  MISS %:       -nan   MPKI: 0
PSCL3 WRITEBACK ACCESS:          0  HIT:          0  MISS:          0  HIT %:       -nan  MISS %:       -nan   MPKI: 0
PSCL2 TOTAL     ACCESS:     450114  HIT:     450106  MISS:          8  HIT %:    99.9982  MISS %: 0.00177733   MPKI: 3.99996e-05
PSCL2 LOAD      ACCESS:          0  HIT:          0  MISS:          0  HIT %:       -nan  MISS %:       -nan   MPKI: 0
PSCL2 RFO       ACCESS:          0  HIT:          0  MISS:          0  HIT %:       -nan  MISS %:       -nan   MPKI: 0
PSCL2 PREFETCH  ACCESS:          0  HIT:          0  MISS:          0  HIT %:       -nan  MISS %:       -nan   MPKI: 0
PSCL2 WRITEBACK ACCESS:          0  HIT:          0  MISS:          0  HIT %:       -nan  MISS %:       -nan   MPKI: 0
LLC TOTAL     ACCESS:     369905  HIT:      65312  MISS:     304593  HIT %:    17.6564  MISS %:    82.3436   MPKI: 1.52295
LLC LOAD      ACCESS:       3166  HIT:          0  MISS:       3166  HIT %:          0  MISS %:        100   MPKI: 0.0158298
LLC RFO       ACCESS:      70337  HIT:          0  MISS:      70337  HIT %:          0  MISS %:        100   MPKI: 0.351682
LLC PREFETCH  ACCESS:     225099  HIT:          5  MISS:     225094  HIT %: 0.00222124  MISS %:    99.9978   MPKI: 1.12546
LLC WRITEBACK ACCESS:      70703  HIT:      65302  MISS:       5401  HIT %:     92.361  MISS %:      7.639   MPKI: 0.0270047

RAW hits: 2885718
Loads Generated: 31467665
Loads sent to L1D: 28581947
Stores Generated: 13504343
Stores sent to L1D: 13504355

CPU 3 cumulative IPC: 0.691917 instructions: 200000001 cycles: 289051961
ITLB TOTAL     ACCESS:   34799263  HIT:   34799263  MISS:          0  HIT %:        100  MISS %:          0   MPKI: 0
ITLB LOAD      ACCESS:          0  HIT:          0  MISS:          0  HIT %:       -nan  MISS %:       -nan   MPKI: 0
ITLB RFO       ACCESS:          0  HIT:          0  MISS:          0  HIT %:       -nan  MISS %:       -nan   MPKI: 0
ITLB PREFETCH  ACCESS:          0  HIT:          0  MISS:          0  HIT %:       -nan  MISS %:       -nan   MPKI: 0
ITLB WRITEBACK ACCESS:          0  HIT:          0  MISS:          0  HIT %:       -nan  MISS %:       -nan   MPKI: 0
DTLB TOTAL     ACCESS:   32666040  HIT:   32661375  MISS:       4665  HIT %:    99.9857  MISS %:  0.0142809   MPKI: 0.023325
DTLB LOAD      ACCESS:          0  HIT:          0  MISS:          0  HIT %:       -nan  MISS %:       -nan   MPKI: 0
DTLB RFO       ACCESS:          0  HIT:          0  MISS:          0  HIT %:       -nan  MISS %:       -nan   MPKI: 0
DTLB PREFETCH  ACCESS:          0  HIT:          0  MISS:          0  HIT %:       -nan  MISS %:       -nan   MPKI: 0
DTLB WRITEBACK ACCESS:          0  HIT:          0  MISS:          0  HIT %:       -nan  MISS %:       -nan   MPKI: 0
STLB TOTAL     ACCESS:    5026733  HIT:    5022068  MISS:       4665  HIT %:    99.9072  MISS %:  0.0928038   MPKI: 0.023325
STLB LOAD      ACCESS:          0  HIT:          0  MISS:          0  HIT %:       -nan  MISS %:       -nan   MPKI: 0
STLB RFO       ACCESS:          0  HIT:          0  MISS:          0  HIT %:       -nan  MISS %:       -nan   MPKI: 0
STLB PREFETCH  ACCESS:          0  HIT:          0  MISS:          0  HIT %:       -nan  MISS %:       -nan   MPKI: 0
STLB WRITEBACK ACCESS:          0  HIT:          0  MISS:          0  HIT %:       -nan  MISS %:       -nan   MPKI: 0
L1D TOTAL     ACCESS:   51222784  HIT:   50924217  MISS:     298567  HIT %:    99.4171  MISS %:   0.582879   MPKI: 1.49283
L1D LOAD      ACCESS:   24635037  HIT:   24626182  MISS:       8855  HIT %:    99.9641  MISS %:  0.0359447   MPKI: 0.044275
L1D RFO       ACCESS:   13481171  HIT:   13410836  MISS:      70335  HIT %:    99.4783  MISS %:   0.521728   MPKI: 0.351675
L1D PREFETCH  ACCESS:   13106576  HIT:   12887199  MISS:     219377  HIT %:    98.3262  MISS %:    1.67379   MPKI: 1.09688
L1D WRITEBACK ACCESS:          0  HIT:          0  MISS:          0  HIT %:       -nan  MISS %:       -nan   MPKI: 0
L1I TOTAL     ACCESS:   38563032  HIT:   38563032  MISS:          0  HIT %:        100  MISS %:          0   MPKI: 0
L1I LOAD      ACCESS:   38563032  HIT:   38563032  MISS:          0  HIT %:        100  MISS %:          0   MPKI: 0
L1I RFO       ACCESS:          0  HIT:          0  MISS:          0  HIT %:       -nan  MISS %:       -nan   MPKI: 0
L1I PREFETCH  ACCESS:          0  HIT:          0  MISS:          0  HIT %:       -nan  MISS %:       -nan   MPKI: 0
L1I WRITEBACK ACCESS:          0  HIT:          0  MISS:          0  HIT %:       -nan  MISS %:       -nan   MPKI: 0
L2C TOTAL     ACCESS:   11369580  HIT:   11046465  MISS:     323115  HIT %:    97.1581  MISS %:    2.84193   MPKI: 1.61557
L2C LOAD      ACCESS:       8506  HIT:       5289  MISS:       3217  HIT %:    62.1796  MISS %:    37.8204   MPKI: 0.016085
L2C RFO       ACCESS:      70335  HIT:          0  MISS:      70335  HIT %:          0  MISS %:        100   MPKI: 0.351675
L2C PREFETCH  ACCESS:   10771530  HIT:   10546510  MISS:     225020  HIT %:     97.911  MISS %:    2.08903   MPKI: 1.1251
L2C WRITEBACK ACCESS:      70323  HIT:      46375  MISS:      23948  HIT %:    65.9457  MISS %:    34.0543   MPKI: 0.11974
PSCL5 TOTAL     ACCESS:     448886  HIT:     448886  MISS:          0  HIT %:        100  MISS %:          0   MPKI: 0
PSCL5 LOAD      ACCESS:          0  HIT:          0  MISS:          0  HIT %:       -nan  MISS %:       -nan   MPKI: 0
PSCL5 RFO       ACCESS:          0  HIT:          0  MISS:          0  HIT %:       -nan  MISS %:       -nan   MPKI: 0
PSCL5 PREFETCH  ACCESS:          0  HIT:          0  MISS:          0  HIT %:       -nan  MISS %:       -nan   MPKI: 0
PSCL5 WRITEBACK ACCESS:          0  HIT:          0  MISS:          0  HIT %:       -nan  MISS %:       -nan   MPKI: 0
PSCL4 TOTAL     ACCESS:     448886  HIT:     448886  MISS:          0  HIT %:        100  MISS %:          0   MPKI: 0
PSCL4 LOAD      ACCESS:          0  HIT:          0  MISS:          0  HIT %:       -nan  MISS %:       -nan   MPKI: 0
PSCL4 RFO       ACCESS:          0  HIT:          0  MISS:          0  HIT %:       -nan  MISS %:       -nan   MPKI: 0
PSCL4 PREFETCH  ACCESS:          0  HIT:          0  MISS:          0  HIT %:       -nan  MISS %:       -nan   MPKI: 0
PSCL4 WRITEBACK ACCESS:          0  HIT:          0  MISS:          0  HIT %:       -nan  MISS %:       -nan   MPKI: 0
PSCL3 TOTAL     ACCESS:     448886  HIT:     448886  MISS:          0  HIT %:        100  MISS %:          0   MPKI: 0
PSCL3 LOAD      ACCESS:          0  HIT:          0  MISS:          0  HIT %:       -nan  MISS %:       -nan   MPKI: 0
PSCL3 RFO       ACCESS:          0  HIT:          0  MISS:          0  HIT %:       -nan  MISS %:       -nan   MPKI: 0
PSCL3 PREFETCH  ACCESS:          0  HIT:          0  MISS:          0  HIT %:       -nan  MISS %:       -nan   MPKI: 0
PSCL3 WRITEBACK ACCESS:          0  HIT:          0  MISS:          0  HIT %:       -nan  MISS %:       -nan   MPKI: 0
PSCL2 TOTAL     ACCESS:     448368  HIT:     448360  MISS:          8  HIT %:    99.9982  MISS %: 0.00178425   MPKI: 4e-05
PSCL2 LOAD      ACCESS:          0  HIT:          0  MISS:          0  HIT %:       -nan  MISS %:       -nan   MPKI: 0
PSCL2 RFO       ACCESS:          0  HIT:          0  MISS:          0  HIT %:       -nan  MISS %:       -nan   MPKI: 0
PSCL2 PREFETCH  ACCESS:          0  HIT:          0  MISS:          0  HIT %:       -nan  MISS %:       -nan   MPKI: 0
PSCL2 WRITEBACK ACCESS:          0  HIT:          0  MISS:          0  HIT %:       -nan  MISS %:       -nan   MPKI: 0
LLC TOTAL     ACCESS:     369939  HIT:      64927  MISS:     305012  HIT %:    17.5507  MISS %:    82.4493   MPKI: 1.52506
LLC LOAD      ACCESS:       3169  HIT:          0  MISS:       3169  HIT %:          0  MISS %:        100   MPKI: 0.015845
LLC RFO       ACCESS:      70335  HIT:          0  MISS:      70335  HIT %:          0  MISS %:        100   MPKI: 0.351675
LLC PREFETCH  ACCESS:     225068  HIT:          3  MISS:     225065  HIT %: 0.00133293  MISS %:    99.9987   MPKI: 1.12532
LLC WRITEBACK ACCESS:      70772  HIT:      64919  MISS:       5853  HIT %:    91.7298  MISS %:    8.27022   MPKI: 0.029265

RAW hits: 2885724
Loads Generated: 31467358
Loads sent to L1D: 28581634
Stores Generated: 13504211
Stores sent to L1D: 13504223

Region of Interest Statistics

CPU 0 cumulative IPC: 0.691938 instructions: 200000000 cycles: 289043271
ITLB TOTAL     ACCESS:   34799283  HIT:   34799283  MISS:          0  HIT %:        100  MISS %:          0   MPKI: 0
ITLB LOAD TRANSLATION ACCESS:   34799283  HIT:   34799283  MISS:          0  HIT %:        100  MISS %:          0   MPKI: 0
ITLB PREFETCH  REQUESTED:          0  ISSUED:          0  USEFUL:          0  USELESS:          0
ITLB USEFUL LOAD PREFETCHES:          0 PREFETCH ISSUED TO LOWER LEVEL:          0  ACCURACY: -nan
ITLB TIMELY PREFETCHES:          0 LATE PREFETCHES: 0 DROPPED PREFETCHES: 0
ITLB PREFETCHES SAME FILL-ORIGIN LEVEL: 0 DIFFERENT FILL-ORIGIN LEVEL: 0
ITLB AVERAGE MISS LATENCY: -nan cycles
ITLB RQ	ACCESS:   38564033	FORWARD:          0	MERGED:    3763863	TO_CACHE:   34800170

DTLB TOTAL     ACCESS:   32665963  HIT:   32661295  MISS:       4668  HIT %:    99.9857  MISS %:  0.0142901   MPKI: 0.02334
DTLB LOAD TRANSLATION ACCESS:   32665963  HIT:   32661295  MISS:       4668  HIT %:    99.9857  MISS %:  0.0142901   MPKI: 0.02334
DTLB PREFETCH  REQUESTED:          0  ISSUED:          0  USEFUL:          0  USELESS:          0
DTLB USEFUL LOAD PREFETCHES:          0 PREFETCH ISSUED TO LOWER LEVEL:          0  ACCURACY: -nan
DTLB TIMELY PREFETCHES:          0 LATE PREFETCHES: 0 DROPPED PREFETCHES: 0
DTLB PREFETCHES SAME FILL-ORIGIN LEVEL: 0 DIFFERENT FILL-ORIGIN LEVEL: 0
DTLB AVERAGE MISS LATENCY: 126.229 cycles
DTLB RQ	ACCESS:   38141928	FORWARD:          0	MERGED:    5475046	TO_CACHE:   32666882

STLB TOTAL     ACCESS:    5016519  HIT:    5011851  MISS:       4668  HIT %:    99.9069  MISS %:  0.0930526   MPKI: 0.02334
STLB LOAD TRANSLATION ACCESS:       4668  HIT:          0  MISS:       4668  HIT %:          0  MISS %:        100   MPKI: 0.02334
STLB TRANSLATION FROM L1D PREFETCHER ACCESS:    5011851  HIT:    5011851  MISS:          0  HIT %:        100  MISS %:          0   MPKI: 0
STLB PREFETCH  REQUESTED:          0  ISSUED:          0  USEFUL:          0  USELESS:          0
STLB USEFUL LOAD PREFETCHES:          0 PREFETCH ISSUED TO LOWER LEVEL:          0  ACCURACY: -nan
STLB TIMELY PREFETCHES:          0 LATE PREFETCHES: 119 DROPPED PREFETCHES: 447164
STLB PREFETCHES SAME FILL-ORIGIN LEVEL: 0 DIFFERENT FILL-ORIGIN LEVEL: 0
STLB AVERAGE MISS LATENCY: 117.528 cycles
STLB RQ	ACCESS:   25073039	FORWARD:          0	MERGED:   19605990	TO_CACHE:    5467049

STLB Hit, L1D data hit: 0
STLB Hit, L2C data hit: 0
STLB Hit, LLC data hit: 0
STLB Hit, LLC data miss: 0
STLB STLB hints to L2: 0
L1D TOTAL     ACCESS:   51196621  HIT:   50898043  MISS:     298578  HIT %:    99.4168  MISS %:   0.583199   MPKI: 1.49289
L1D LOAD      ACCESS:   24634968  HIT:   24625966  MISS:       9002  HIT %:    99.9635  MISS %:  0.0365416   MPKI: 0.04501
L1D RFO       ACCESS:   13477200  HIT:   13406864  MISS:      70336  HIT %:    99.4781  MISS %:   0.521889   MPKI: 0.35168
L1D PREFETCH  ACCESS:   13084453  HIT:   12865213  MISS:     219240  HIT %:    98.3244  MISS %:    1.67558   MPKI: 1.0962
L1D PREFETCH  REQUESTED:   52609700  ISSUED:   52609353  USEFUL:     219260  USELESS:          0
L1D USEFUL LOAD PREFETCHES:     219260 PREFETCH ISSUED TO LOWER LEVEL:   10826287  ACCURACY: 2.02526
L1D TIMELY PREFETCHES:     219260 LATE PREFETCHES: 352 DROPPED PREFETCHES: 1369187
L1D PREFETCHES SAME FILL-ORIGIN LEVEL: 219603 DIFFERENT FILL-ORIGIN LEVEL: 10606684
L1D AVERAGE MISS LATENCY: 77.4782 cycles
L1D RQ	ACCESS:   28582308	FORWARD:          0	MERGED:    3926887	TO_CACHE:   24637373
L1D WQ	ACCESS:   13504555	FORWARD:      18048	MERGED:          0	TO_CACHE:   13504555
L1D PQ	ACCESS:   27540984	FORWARD:          0	MERGED:    2472615	TO_CACHE:   25068369

L1D UNIQUE REGIONS ACCESSED: 0
L1D REGIONS CONFLICTS: 0
L1D Cross Page Prefetch Requests: 2227374
L1D Same Page Prefetch Requests: 34020111
L1D ROI Sum of L1D PQ occupancy: 333893348
L1D PREFETCHES PUSHED FROM L2C: 0
L1I TOTAL     ACCESS:   38563053  HIT:   38563053  MISS:          0  HIT %:        100  MISS %:          0   MPKI: 0
L1I LOAD      ACCESS:   38563053  HIT:   38563053  MISS:          0  HIT %:        100  MISS %:          0   MPKI: 0
L1I PREFETCH  REQUESTED:          0  ISSUED:          0  USEFUL:          0  USELESS:          0
L1I USEFUL LOAD PREFETCHES:          0 PREFETCH ISSUED TO LOWER LEVEL:          0  ACCURACY: -nan
L1I TIMELY PREFETCHES:          0 LATE PREFETCHES: 0 DROPPED PREFETCHES: 0
L1I PREFETCHES SAME FILL-ORIGIN LEVEL: 0 DIFFERENT FILL-ORIGIN LEVEL: 0
L1I AVERAGE MISS LATENCY: -nan cycles
L1I RQ	ACCESS:   54260155	FORWARD:          0	MERGED:   15696122	TO_CACHE:   38564033

BTB TOTAL     ACCESS:   31210195  HIT:   30084832  MISS:    1125363  HIT %:    96.3942  MISS %:    3.60575   MPKI: 5.62681
BTB BRANCH_DIRECT_JUMP	ACCESS:    7856216  HIT:    7856212  MISS:          4
BTB BRANCH_INDIRECT	ACCESS:          0  HIT:          0  MISS:          0
BTB BRANCH_CONDITIONAL	ACCESS:   21103278  HIT:   21103271  MISS:          7
BTB BRANCH_DIRECT_CALL	ACCESS:    1125351  HIT:    1125349  MISS:          2
BTB BRANCH_INDIRECT_CALL	ACCESS:          0  HIT:          0  MISS:          0
BTB BRANCH_RETURN	ACCESS:    1125350  HIT:          0  MISS:    1125350
BTB BRANCH_OTHER ACCESS:          0  HIT:          0  MISS:          0

L2C TOTAL     ACCESS:   11333440  HIT:   11010030  MISS:     323410  HIT %:    97.1464  MISS %:    2.85359   MPKI: 1.61705
L2C LOAD      ACCESS:       8650  HIT:       5433  MISS:       3217  HIT %:    62.8092  MISS %:    37.1908   MPKI: 0.016085
L2C DATA LOAD MPKI: 0.016085
L2C INSTRUCTION LOAD MPKI: 0
L2C RFO       ACCESS:      70336  HIT:          0  MISS:      70336  HIT %:          0  MISS %:        100   MPKI: 0.35168
L2C PREFETCH  ACCESS:   10732174  HIT:   10507147  MISS:     225027  HIT %:    97.9032  MISS %:    2.09675   MPKI: 1.12513
L2C DATA PREFETCH MPKI: 1.12513
L2C INSTRUCTION PREFETCH MPKI: 0
L2C WRITEBACK ACCESS:      70329  HIT:      46097  MISS:      24232  HIT %:    65.5448  MISS %:    34.4552   MPKI: 0.12116
L2C LOAD TRANSLATION ACCESS:       4668  HIT:       4521  MISS:        147  HIT %:    96.8509  MISS %:     3.1491   MPKI: 0.000735
L2C TRANSLATION FROM L1D PREFETCHER ACCESS:     447283  HIT:     446832  MISS:        451  HIT %:    99.8992  MISS %:   0.100831   MPKI: 0.002255
L2C PREFETCH  REQUESTED:          0  ISSUED:          0  USEFUL:       5884  USELESS:     219394
L2C USEFUL LOAD PREFETCHES:       5884 PREFETCH ISSUED TO LOWER LEVEL:     225098  ACCURACY: 2.61397
L2C TIMELY PREFETCHES:       5884 LATE PREFETCHES: 57 DROPPED PREFETCHES: 0
L2C PREFETCHES SAME FILL-ORIGIN LEVEL: 182404 DIFFERENT FILL-ORIGIN LEVEL: 0
L2C AVERAGE MISS LATENCY: 154.549 cycles
L2C RQ	ACCESS:     530943	FORWARD:          0	MERGED:          0	TO_CACHE:     530943
L2C WQ	ACCESS:      70329	FORWARD:          0	MERGED:          0	TO_CACHE:      70329
L2C PQ	ACCESS:   10826287	FORWARD:          0	MERGED:       1401	TO_CACHE:   10824886

L2C Instructions Evicting Data 0
L2C Translations Evicting Data 596
L2C Data Evicting Data 298020
L2C Instructions Evicting Instructions 0
L2C Translations Evicting Instructions 0
L2C Data Evicting Instructions 0
L2C Instructions Evicting Translations 0
L2C Translations Evicting Translations 4
L2C Data Evicting Translations 578
L2C Dense regions hint from L2: 0
PSCL5 TOTAL     ACCESS:     451951  HIT:     451951  MISS:          0  HIT %:        100  MISS %:          0   MPKI: 0
PSCL5 LOAD TRANSLATION ACCESS:       4668  HIT:       4668  MISS:          0  HIT %:        100  MISS %:          0   MPKI: 0
PSCL5 TRANSLATION FROM L1D PREFETCHER ACCESS:     447283  HIT:     447283  MISS:          0  HIT %:        100  MISS %:          0   MPKI: 0
PSCL5 PREFETCH  REQUESTED:          0  ISSUED:          0  USEFUL:          0  USELESS:          0
PSCL5 USEFUL LOAD PREFETCHES:          0 PREFETCH ISSUED TO LOWER LEVEL:          0  ACCURACY: -nan
PSCL5 TIMELY PREFETCHES:          0 LATE PREFETCHES: 0 DROPPED PREFETCHES: 0
PSCL5 PREFETCHES SAME FILL-ORIGIN LEVEL: 0 DIFFERENT FILL-ORIGIN LEVEL: 0

PSCL4 TOTAL     ACCESS:     451951  HIT:     451951  MISS:          0  HIT %:        100  MISS %:          0   MPKI: 0
PSCL4 LOAD TRANSLATION ACCESS:       4668  HIT:       4668  MISS:          0  HIT %:        100  MISS %:          0   MPKI: 0
PSCL4 TRANSLATION FROM L1D PREFETCHER ACCESS:     447283  HIT:     447283  MISS:          0  HIT %:        100  MISS %:          0   MPKI: 0
PSCL4 PREFETCH  REQUESTED:          0  ISSUED:          0  USEFUL:          0  USELESS:          0
PSCL4 USEFUL LOAD PREFETCHES:          0 PREFETCH ISSUED TO LOWER LEVEL:          0  ACCURACY: -nan
PSCL4 TIMELY PREFETCHES:          0 LATE PREFETCHES: 0 DROPPED PREFETCHES: 0
PSCL4 PREFETCHES SAME FILL-ORIGIN LEVEL: 0 DIFFERENT FILL-ORIGIN LEVEL: 0

PSCL3 TOTAL     ACCESS:     451951  HIT:     451951  MISS:          0  HIT %:        100  MISS %:          0   MPKI: 0
PSCL3 LOAD TRANSLATION ACCESS:       4668  HIT:       4668  MISS:          0  HIT %:        100  MISS %:          0   MPKI: 0
PSCL3 TRANSLATION FROM L1D PREFETCHER ACCESS:     447283  HIT:     447283  MISS:          0  HIT %:        100  MISS %:          0   MPKI: 0
PSCL3 PREFETCH  REQUESTED:          0  ISSUED:          0  USEFUL:          0  USELESS:          0
PSCL3 USEFUL LOAD PREFETCHES:          0 PREFETCH ISSUED TO LOWER LEVEL:          0  ACCURACY: -nan
PSCL3 TIMELY PREFETCHES:          0 LATE PREFETCHES: 0 DROPPED PREFETCHES: 0
PSCL3 PREFETCHES SAME FILL-ORIGIN LEVEL: 0 DIFFERENT FILL-ORIGIN LEVEL: 0

PSCL2 TOTAL     ACCESS:     451462  HIT:     451454  MISS:          8  HIT %:    99.9982  MISS %: 0.00177202   MPKI: 4e-05
PSCL2 LOAD TRANSLATION ACCESS:       4668  HIT:       4660  MISS:          8  HIT %:    99.8286  MISS %:    0.17138   MPKI: 4e-05
PSCL2 TRANSLATION FROM L1D PREFETCHER ACCESS:     446794  HIT:     446794  MISS:          0  HIT %:        100  MISS %:          0   MPKI: 0
PSCL2 PREFETCH  REQUESTED:          0  ISSUED:          0  USEFUL:          0  USELESS:          0
PSCL2 USEFUL LOAD PREFETCHES:          0 PREFETCH ISSUED TO LOWER LEVEL:          0  ACCURACY: -nan
PSCL2 TIMELY PREFETCHES:          0 LATE PREFETCHES: 0 DROPPED PREFETCHES: 0
PSCL2 PREFETCHES SAME FILL-ORIGIN LEVEL: 0 DIFFERENT FILL-ORIGIN LEVEL: 0

LLC TOTAL     ACCESS:     369887  HIT:      65195  MISS:     304692  HIT %:    17.6257  MISS %:    82.3743   MPKI: 1.52346
LLC LOAD      ACCESS:       3160  HIT:          0  MISS:       3160  HIT %:          0  MISS %:        100   MPKI: 0.0158
LLC RFO       ACCESS:      70336  HIT:          0  MISS:      70336  HIT %:          0  MISS %:        100   MPKI: 0.35168
LLC PREFETCH  ACCESS:     225084  HIT:          0  MISS:     225084  HIT %:          0  MISS %:        100   MPKI: 1.12542
LLC WRITEBACK ACCESS:      70709  HIT:      65190  MISS:       5519  HIT %:    92.1948  MISS %:    7.80523   MPKI: 0.027595
LLC LOAD TRANSLATION ACCESS:        147  HIT:          5  MISS:        142  HIT %:    3.40136  MISS %:    96.5986   MPKI: 0.00071
LLC TRANSLATION FROM L1D PREFETCHER ACCESS:        451  HIT:          0  MISS:        451  HIT %:          0  MISS %:        100   MPKI: 0.002255
LLC PREFETCH  REQUESTED:          0  ISSUED:          0  USEFUL:          5  USELESS:     900315
LLC USEFUL LOAD PREFETCHES:          5 PREFETCH ISSUED TO LOWER LEVEL:     900368  ACCURACY: 0.000555328
LLC TIMELY PREFETCHES:          5 LATE PREFETCHES: 0 DROPPED PREFETCHES: 0
LLC PREFETCHES SAME FILL-ORIGIN LEVEL: 0 DIFFERENT FILL-ORIGIN LEVEL: 0
LLC AVERAGE MISS LATENCY: 512.049 cycles
LLC RQ	ACCESS:     296402	FORWARD:          0	MERGED:          0	TO_CACHE:     296402
LLC WQ	ACCESS:     283030	FORWARD:          0	MERGED:          0	TO_CACHE:     283030
LLC PQ	ACCESS:     900380	FORWARD:          0	MERGED:          0	TO_CACHE:     900380

LLC Dense regions hint to LLC: 0

RAW hits: 2885781
Loads Generated: 31467369
Loads sent to L1D: 28581588
Stores Generated: 13504223
Stores sent to L1D: 13504223
Major fault: 0 Minor fault: 5878
Allocated PAGES: 23512

CPU 1 cumulative IPC: 0.691938 instructions: 200000000 cycles: 289043319
ITLB TOTAL     ACCESS:   34799276  HIT:   34799276  MISS:          0  HIT %:        100  MISS %:          0   MPKI: 0
ITLB LOAD TRANSLATION ACCESS:   34799276  HIT:   34799276  MISS:          0  HIT %:        100  MISS %:          0   MPKI: 0
ITLB PREFETCH  REQUESTED:          0  ISSUED:          0  USEFUL:          0  USELESS:          0
ITLB USEFUL LOAD PREFETCHES:          0 PREFETCH ISSUED TO LOWER LEVEL:          0  ACCURACY: -nan
ITLB TIMELY PREFETCHES:          0 LATE PREFETCHES: 0 DROPPED PREFETCHES: 0
ITLB PREFETCHES SAME FILL-ORIGIN LEVEL: 0 DIFFERENT FILL-ORIGIN LEVEL: 0
ITLB AVERAGE MISS LATENCY: -nan cycles
ITLB RQ	ACCESS:   38564017	FORWARD:          0	MERGED:    3763862	TO_CACHE:   34800155

DTLB TOTAL     ACCESS:   32666184  HIT:   32661516  MISS:       4668  HIT %:    99.9857  MISS %:    0.01429   MPKI: 0.02334
DTLB LOAD TRANSLATION ACCESS:   32666184  HIT:   32661516  MISS:       4668  HIT %:    99.9857  MISS %:    0.01429   MPKI: 0.02334
DTLB PREFETCH  REQUESTED:          0  ISSUED:          0  USEFUL:          0  USELESS:          0
DTLB USEFUL LOAD PREFETCHES:          0 PREFETCH ISSUED TO LOWER LEVEL:          0  ACCURACY: -nan
DTLB TIMELY PREFETCHES:          0 LATE PREFETCHES: 0 DROPPED PREFETCHES: 0
DTLB PREFETCHES SAME FILL-ORIGIN LEVEL: 0 DIFFERENT FILL-ORIGIN LEVEL: 0
DTLB AVERAGE MISS LATENCY: 125.171 cycles
DTLB RQ	ACCESS:   38142047	FORWARD:          0	MERGED:    5474987	TO_CACHE:   32667060

STLB TOTAL     ACCESS:    5025995  HIT:    5021327  MISS:       4668  HIT %:    99.9071  MISS %:  0.0928771   MPKI: 0.02334
STLB LOAD TRANSLATION ACCESS:       4668  HIT:          0  MISS:       4668  HIT %:          0  MISS %:        100   MPKI: 0.02334
STLB TRANSLATION FROM L1D PREFETCHER ACCESS:    5021327  HIT:    5021327  MISS:          0  HIT %:        100  MISS %:          0   MPKI: 0
STLB PREFETCH  REQUESTED:          0  ISSUED:          0  USEFUL:          0  USELESS:          0
STLB USEFUL LOAD PREFETCHES:          0 PREFETCH ISSUED TO LOWER LEVEL:          0  ACCURACY: -nan
STLB TIMELY PREFETCHES:          0 LATE PREFETCHES: 120 DROPPED PREFETCHES: 446814
STLB PREFETCHES SAME FILL-ORIGIN LEVEL: 0 DIFFERENT FILL-ORIGIN LEVEL: 0
STLB AVERAGE MISS LATENCY: 116.471 cycles
STLB RQ	ACCESS:   25096152	FORWARD:          0	MERGED:   19619884	TO_CACHE:    5476268

STLB Hit, L1D data hit: 0
STLB Hit, L2C data hit: 0
STLB Hit, LLC data hit: 0
STLB Hit, LLC data miss: 0
STLB STLB hints to L2: 0
L1D TOTAL     ACCESS:   51232588  HIT:   50934008  MISS:     298580  HIT %:    99.4172  MISS %:   0.582793   MPKI: 1.4929
L1D LOAD      ACCESS:   24635122  HIT:   24626181  MISS:       8941  HIT %:    99.9637  MISS %:  0.0362937   MPKI: 0.044705
L1D RFO       ACCESS:   13486522  HIT:   13416186  MISS:      70336  HIT %:    99.4785  MISS %:   0.521528   MPKI: 0.35168
L1D PREFETCH  ACCESS:   13110944  HIT:   12891641  MISS:     219303  HIT %:    98.3273  MISS %:    1.67267   MPKI: 1.09651
L1D PREFETCH  REQUESTED:   52656819  ISSUED:   52656069  USEFUL:     219321  USELESS:          0
L1D USEFUL LOAD PREFETCHES:     219321 PREFETCH ISSUED TO LOWER LEVEL:   10822950  ACCURACY: 2.02644
L1D TIMELY PREFETCHES:     219321 LATE PREFETCHES: 362 DROPPED PREFETCHES: 1369296
L1D PREFETCHES SAME FILL-ORIGIN LEVEL: 219677 DIFFERENT FILL-ORIGIN LEVEL: 10603273
L1D AVERAGE MISS LATENCY: 72.9638 cycles
L1D RQ	ACCESS:   28582438	FORWARD:          0	MERGED:    3926901	TO_CACHE:   24637498
L1D WQ	ACCESS:   13504549	FORWARD:      18039	MERGED:          0	TO_CACHE:   13504549
L1D PQ	ACCESS:   27564587	FORWARD:          0	MERGED:    2473105	TO_CACHE:   25091482

L1D UNIQUE REGIONS ACCESSED: 0
L1D REGIONS CONFLICTS: 0
L1D Cross Page Prefetch Requests: 2229128
L1D Same Page Prefetch Requests: 34043253
L1D ROI Sum of L1D PQ occupancy: 334242684
L1D PREFETCHES PUSHED FROM L2C: 0
L1I TOTAL     ACCESS:   38563046  HIT:   38563046  MISS:          0  HIT %:        100  MISS %:          0   MPKI: 0
L1I LOAD      ACCESS:   38563046  HIT:   38563046  MISS:          0  HIT %:        100  MISS %:          0   MPKI: 0
L1I PREFETCH  REQUESTED:          0  ISSUED:          0  USEFUL:          0  USELESS:          0
L1I USEFUL LOAD PREFETCHES:          0 PREFETCH ISSUED TO LOWER LEVEL:          0  ACCURACY: -nan
L1I TIMELY PREFETCHES:          0 LATE PREFETCHES: 0 DROPPED PREFETCHES: 0
L1I PREFETCHES SAME FILL-ORIGIN LEVEL: 0 DIFFERENT FILL-ORIGIN LEVEL: 0
L1I AVERAGE MISS LATENCY: -nan cycles
L1I RQ	ACCESS:   54260137	FORWARD:          0	MERGED:   15696120	TO_CACHE:   38564017

BTB TOTAL     ACCESS:   31210195  HIT:   30084831  MISS:    1125364  HIT %:    96.3942  MISS %:    3.60576   MPKI: 5.62682
BTB BRANCH_DIRECT_JUMP	ACCESS:    7856216  HIT:    7856212  MISS:          4
BTB BRANCH_INDIRECT	ACCESS:          0  HIT:          0  MISS:          0
BTB BRANCH_CONDITIONAL	ACCESS:   21103277  HIT:   21103270  MISS:          7
BTB BRANCH_DIRECT_CALL	ACCESS:    1125351  HIT:    1125349  MISS:          2
BTB BRANCH_INDIRECT_CALL	ACCESS:          0  HIT:          0  MISS:          0
BTB BRANCH_RETURN	ACCESS:    1125351  HIT:          0  MISS:    1125351
BTB BRANCH_OTHER ACCESS:          0  HIT:          0  MISS:          0

L2C TOTAL     ACCESS:   11330900  HIT:   11007305  MISS:     323595  HIT %:    97.1441  MISS %:    2.85586   MPKI: 1.61797
L2C LOAD      ACCESS:       8579  HIT:       5371  MISS:       3208  HIT %:    62.6064  MISS %:    37.3936   MPKI: 0.01604
L2C DATA LOAD MPKI: 0.01604
L2C INSTRUCTION LOAD MPKI: 0
L2C RFO       ACCESS:      70336  HIT:          0  MISS:      70336  HIT %:          0  MISS %:        100   MPKI: 0.35168
L2C PREFETCH  ACCESS:   10730052  HIT:   10504996  MISS:     225056  HIT %:    97.9026  MISS %:    2.09744   MPKI: 1.12528
L2C DATA PREFETCH MPKI: 1.12528
L2C INSTRUCTION PREFETCH MPKI: 0
L2C WRITEBACK ACCESS:      70331  HIT:      45930  MISS:      24401  HIT %:    65.3055  MISS %:    34.6945   MPKI: 0.122005
L2C LOAD TRANSLATION ACCESS:       4668  HIT:       4526  MISS:        142  HIT %:     96.958  MISS %:    3.04199   MPKI: 0.00071
L2C TRANSLATION FROM L1D PREFETCHER ACCESS:     446934  HIT:     446482  MISS:        452  HIT %:    99.8989  MISS %:   0.101134   MPKI: 0.00226
L2C PREFETCH  REQUESTED:          0  ISSUED:          0  USEFUL:       5823  USELESS:     219291
L2C USEFUL LOAD PREFETCHES:       5823 PREFETCH ISSUED TO LOWER LEVEL:     225114  ACCURACY: 2.58669
L2C TIMELY PREFETCHES:       5823 LATE PREFETCHES: 44 DROPPED PREFETCHES: 0
L2C PREFETCHES SAME FILL-ORIGIN LEVEL: 182681 DIFFERENT FILL-ORIGIN LEVEL: 0
L2C AVERAGE MISS LATENCY: 145.109 cycles
L2C RQ	ACCESS:     530523	FORWARD:          0	MERGED:          0	TO_CACHE:     530523
L2C WQ	ACCESS:      70331	FORWARD:          0	MERGED:          0	TO_CACHE:      70331
L2C PQ	ACCESS:   10822950	FORWARD:          0	MERGED:       1447	TO_CACHE:   10821503

L2C Instructions Evicting Data 0
L2C Translations Evicting Data 591
L2C Data Evicting Data 298034
L2C Instructions Evicting Instructions 0
L2C Translations Evicting Instructions 0
L2C Data Evicting Instructions 0
L2C Instructions Evicting Translations 0
L2C Translations Evicting Translations 5
L2C Data Evicting Translations 584
L2C Dense regions hint from L2: 0
PSCL5 TOTAL     ACCESS:     451602  HIT:     451602  MISS:          0  HIT %:        100  MISS %:          0   MPKI: 0
PSCL5 LOAD TRANSLATION ACCESS:       4668  HIT:       4668  MISS:          0  HIT %:        100  MISS %:          0   MPKI: 0
PSCL5 TRANSLATION FROM L1D PREFETCHER ACCESS:     446934  HIT:     446934  MISS:          0  HIT %:        100  MISS %:          0   MPKI: 0
PSCL5 PREFETCH  REQUESTED:          0  ISSUED:          0  USEFUL:          0  USELESS:          0
PSCL5 USEFUL LOAD PREFETCHES:          0 PREFETCH ISSUED TO LOWER LEVEL:          0  ACCURACY: -nan
PSCL5 TIMELY PREFETCHES:          0 LATE PREFETCHES: 0 DROPPED PREFETCHES: 0
PSCL5 PREFETCHES SAME FILL-ORIGIN LEVEL: 0 DIFFERENT FILL-ORIGIN LEVEL: 0

PSCL4 TOTAL     ACCESS:     451602  HIT:     451602  MISS:          0  HIT %:        100  MISS %:          0   MPKI: 0
PSCL4 LOAD TRANSLATION ACCESS:       4668  HIT:       4668  MISS:          0  HIT %:        100  MISS %:          0   MPKI: 0
PSCL4 TRANSLATION FROM L1D PREFETCHER ACCESS:     446934  HIT:     446934  MISS:          0  HIT %:        100  MISS %:          0   MPKI: 0
PSCL4 PREFETCH  REQUESTED:          0  ISSUED:          0  USEFUL:          0  USELESS:          0
PSCL4 USEFUL LOAD PREFETCHES:          0 PREFETCH ISSUED TO LOWER LEVEL:          0  ACCURACY: -nan
PSCL4 TIMELY PREFETCHES:          0 LATE PREFETCHES: 0 DROPPED PREFETCHES: 0
PSCL4 PREFETCHES SAME FILL-ORIGIN LEVEL: 0 DIFFERENT FILL-ORIGIN LEVEL: 0

PSCL3 TOTAL     ACCESS:     451602  HIT:     451602  MISS:          0  HIT %:        100  MISS %:          0   MPKI: 0
PSCL3 LOAD TRANSLATION ACCESS:       4668  HIT:       4668  MISS:          0  HIT %:        100  MISS %:          0   MPKI: 0
PSCL3 TRANSLATION FROM L1D PREFETCHER ACCESS:     446934  HIT:     446934  MISS:          0  HIT %:        100  MISS %:          0   MPKI: 0
PSCL3 PREFETCH  REQUESTED:          0  ISSUED:          0  USEFUL:          0  USELESS:          0
PSCL3 USEFUL LOAD PREFETCHES:          0 PREFETCH ISSUED TO LOWER LEVEL:          0  ACCURACY: -nan
PSCL3 TIMELY PREFETCHES:          0 LATE PREFETCHES: 0 DROPPED PREFETCHES: 0
PSCL3 PREFETCHES SAME FILL-ORIGIN LEVEL: 0 DIFFERENT FILL-ORIGIN LEVEL: 0

PSCL2 TOTAL     ACCESS:     451052  HIT:     451044  MISS:          8  HIT %:    99.9982  MISS %: 0.00177363   MPKI: 4e-05
PSCL2 LOAD TRANSLATION ACCESS:       4668  HIT:       4660  MISS:          8  HIT %:    99.8286  MISS %:    0.17138   MPKI: 4e-05
PSCL2 TRANSLATION FROM L1D PREFETCHER ACCESS:     446384  HIT:     446384  MISS:          0  HIT %:        100  MISS %:          0   MPKI: 0
PSCL2 PREFETCH  REQUESTED:          0  ISSUED:          0  USEFUL:          0  USELESS:          0
PSCL2 USEFUL LOAD PREFETCHES:          0 PREFETCH ISSUED TO LOWER LEVEL:          0  ACCURACY: -nan
PSCL2 TIMELY PREFETCHES:          0 LATE PREFETCHES: 0 DROPPED PREFETCHES: 0
PSCL2 PREFETCHES SAME FILL-ORIGIN LEVEL: 0 DIFFERENT FILL-ORIGIN LEVEL: 0

LLC TOTAL     ACCESS:     370027  HIT:      65257  MISS:     304770  HIT %:    17.6357  MISS %:    82.3643   MPKI: 1.52385
LLC LOAD      ACCESS:       3164  HIT:          0  MISS:       3164  HIT %:          0  MISS %:        100   MPKI: 0.01582
LLC RFO       ACCESS:      70336  HIT:          0  MISS:      70336  HIT %:          0  MISS %:        100   MPKI: 0.35168
LLC PREFETCH  ACCESS:     225100  HIT:          4  MISS:     225096  HIT %: 0.00177699  MISS %:    99.9982   MPKI: 1.12548
LLC WRITEBACK ACCESS:      70833  HIT:      65252  MISS:       5581  HIT %:    92.1209  MISS %:     7.8791   MPKI: 0.027905
LLC LOAD TRANSLATION ACCESS:        142  HIT:          0  MISS:        142  HIT %:          0  MISS %:        100   MPKI: 0.00071
LLC TRANSLATION FROM L1D PREFETCHER ACCESS:        452  HIT:          1  MISS:        451  HIT %:   0.221239  MISS %:    99.7788   MPKI: 0.002255
LLC PREFETCH  REQUESTED:          0  ISSUED:          0  USEFUL:          5  USELESS:     900315
LLC USEFUL LOAD PREFETCHES:          5 PREFETCH ISSUED TO LOWER LEVEL:     900368  ACCURACY: 0.000555328
LLC TIMELY PREFETCHES:          5 LATE PREFETCHES: 0 DROPPED PREFETCHES: 0
LLC PREFETCHES SAME FILL-ORIGIN LEVEL: 0 DIFFERENT FILL-ORIGIN LEVEL: 0
LLC AVERAGE MISS LATENCY: 511.918 cycles
LLC RQ	ACCESS:     296402	FORWARD:          0	MERGED:          0	TO_CACHE:     296402
LLC WQ	ACCESS:     283030	FORWARD:          0	MERGED:          0	TO_CACHE:     283030
LLC PQ	ACCESS:     900380	FORWARD:          0	MERGED:          0	TO_CACHE:     900380

LLC Dense regions hint to LLC: 0

RAW hits: 2885644
Loads Generated: 31467369
Loads sent to L1D: 28581725
Stores Generated: 13504223
Stores sent to L1D: 13504223
Major fault: 0 Minor fault: 5878
Allocated PAGES: 23512

CPU 2 cumulative IPC: 0.691928 instructions: 200000000 cycles: 289047444
ITLB TOTAL     ACCESS:   34799261  HIT:   34799261  MISS:          0  HIT %:        100  MISS %:          0   MPKI: 0
ITLB LOAD TRANSLATION ACCESS:   34799261  HIT:   34799261  MISS:          0  HIT %:        100  MISS %:          0   MPKI: 0
ITLB PREFETCH  REQUESTED:          0  ISSUED:          0  USEFUL:          0  USELESS:          0
ITLB USEFUL LOAD PREFETCHES:          0 PREFETCH ISSUED TO LOWER LEVEL:          0  ACCURACY: -nan
ITLB TIMELY PREFETCHES:          0 LATE PREFETCHES: 0 DROPPED PREFETCHES: 0
ITLB PREFETCHES SAME FILL-ORIGIN LEVEL: 0 DIFFERENT FILL-ORIGIN LEVEL: 0
ITLB AVERAGE MISS LATENCY: -nan cycles
ITLB RQ	ACCESS:   38563419	FORWARD:          0	MERGED:    3763806	TO_CACHE:   34799613

DTLB TOTAL     ACCESS:   32666119  HIT:   32661454  MISS:       4665  HIT %:    99.9857  MISS %:  0.0142809   MPKI: 0.023325
DTLB LOAD TRANSLATION ACCESS:   32666119  HIT:   32661454  MISS:       4665  HIT %:    99.9857  MISS %:  0.0142809   MPKI: 0.023325
DTLB PREFETCH  REQUESTED:          0  ISSUED:          0  USEFUL:          0  USELESS:          0
DTLB USEFUL LOAD PREFETCHES:          0 PREFETCH ISSUED TO LOWER LEVEL:          0  ACCURACY: -nan
DTLB TIMELY PREFETCHES:          0 LATE PREFETCHES: 0 DROPPED PREFETCHES: 0
DTLB PREFETCHES SAME FILL-ORIGIN LEVEL: 0 DIFFERENT FILL-ORIGIN LEVEL: 0
DTLB AVERAGE MISS LATENCY: 125.212 cycles
DTLB RQ	ACCESS:   38141402	FORWARD:          0	MERGED:    5474905	TO_CACHE:   32666497

STLB TOTAL     ACCESS:    5016365  HIT:    5011700  MISS:       4665  HIT %:     99.907  MISS %:  0.0929956   MPKI: 0.023325
STLB LOAD TRANSLATION ACCESS:       4665  HIT:          0  MISS:       4665  HIT %:          0  MISS %:        100   MPKI: 0.023325
STLB TRANSLATION FROM L1D PREFETCHER ACCESS:    5011700  HIT:    5011700  MISS:          0  HIT %:        100  MISS %:          0   MPKI: 0
STLB PREFETCH  REQUESTED:          0  ISSUED:          0  USEFUL:          0  USELESS:          0
STLB USEFUL LOAD PREFETCHES:          0 PREFETCH ISSUED TO LOWER LEVEL:          0  ACCURACY: -nan
STLB TIMELY PREFETCHES:          0 LATE PREFETCHES: 118 DROPPED PREFETCHES: 445854
STLB PREFETCHES SAME FILL-ORIGIN LEVEL: 0 DIFFERENT FILL-ORIGIN LEVEL: 0
STLB AVERAGE MISS LATENCY: 116.477 cycles
STLB RQ	ACCESS:   25159589	FORWARD:          0	MERGED:   19694012	TO_CACHE:    5465577

STLB Hit, L1D data hit: 0
STLB Hit, L2C data hit: 0
STLB Hit, LLC data hit: 0
STLB Hit, LLC data miss: 0
STLB STLB hints to L2: 0
L1D TOTAL     ACCESS:   51197353  HIT:   50898783  MISS:     298570  HIT %:    99.4168  MISS %:   0.583175   MPKI: 1.49285
L1D LOAD      ACCESS:   24635115  HIT:   24626509  MISS:       8606  HIT %:    99.9651  MISS %:  0.0349339   MPKI: 0.04303
L1D RFO       ACCESS:   13483110  HIT:   13412775  MISS:      70335  HIT %:    99.4783  MISS %:   0.521653   MPKI: 0.351675
L1D PREFETCH  ACCESS:   13079128  HIT:   12859499  MISS:     219629  HIT %:    98.3208  MISS %:    1.67923   MPKI: 1.09814
L1D PREFETCH  REQUESTED:   52796591  ISSUED:   52795834  USEFUL:     219651  USELESS:          0
L1D USEFUL LOAD PREFETCHES:     219651 PREFETCH ISSUED TO LOWER LEVEL:   10918207  ACCURACY: 2.01179
L1D TIMELY PREFETCHES:     219651 LATE PREFETCHES: 353 DROPPED PREFETCHES: 1369909
L1D PREFETCHES SAME FILL-ORIGIN LEVEL: 219999 DIFFERENT FILL-ORIGIN LEVEL: 10698208
L1D AVERAGE MISS LATENCY: 74.0586 cycles
L1D RQ	ACCESS:   28581947	FORWARD:          0	MERGED:    3926850	TO_CACHE:   24637047
L1D WQ	ACCESS:   13504355	FORWARD:      18050	MERGED:          0	TO_CACHE:   13504355
L1D PQ	ACCESS:   27640915	FORWARD:          0	MERGED:    2485996	TO_CACHE:   25154919

L1D UNIQUE REGIONS ACCESSED: 0
L1D REGIONS CONFLICTS: 0
L1D Cross Page Prefetch Requests: 2228826
L1D Same Page Prefetch Requests: 34111105
L1D ROI Sum of L1D PQ occupancy: 335001562
L1D PREFETCHES PUSHED FROM L2C: 0
L1I TOTAL     ACCESS:   38563030  HIT:   38563030  MISS:          0  HIT %:        100  MISS %:          0   MPKI: 0
L1I LOAD      ACCESS:   38563030  HIT:   38563030  MISS:          0  HIT %:        100  MISS %:          0   MPKI: 0
L1I PREFETCH  REQUESTED:          0  ISSUED:          0  USEFUL:          0  USELESS:          0
L1I USEFUL LOAD PREFETCHES:          0 PREFETCH ISSUED TO LOWER LEVEL:          0  ACCURACY: -nan
L1I TIMELY PREFETCHES:          0 LATE PREFETCHES: 0 DROPPED PREFETCHES: 0
L1I PREFETCHES SAME FILL-ORIGIN LEVEL: 0 DIFFERENT FILL-ORIGIN LEVEL: 0
L1I AVERAGE MISS LATENCY: -nan cycles
L1I RQ	ACCESS:   54259292	FORWARD:          0	MERGED:   15695873	TO_CACHE:   38563419

BTB TOTAL     ACCESS:   31210182  HIT:   30084816  MISS:    1125366  HIT %:    96.3942  MISS %:    3.60577   MPKI: 5.62683
BTB BRANCH_DIRECT_JUMP	ACCESS:    7856211  HIT:    7856207  MISS:          4
BTB BRANCH_INDIRECT	ACCESS:          0  HIT:          0  MISS:          0
BTB BRANCH_CONDITIONAL	ACCESS:   21103271  HIT:   21103261  MISS:         10
BTB BRANCH_DIRECT_CALL	ACCESS:    1125350  HIT:    1125348  MISS:          2
BTB BRANCH_INDIRECT_CALL	ACCESS:          0  HIT:          0  MISS:          0
BTB BRANCH_RETURN	ACCESS:    1125350  HIT:          0  MISS:    1125350
BTB BRANCH_OTHER ACCESS:          0  HIT:          0  MISS:          0

L2C TOTAL     ACCESS:   11425812  HIT:   11102316  MISS:     323496  HIT %:    97.1687  MISS %:    2.83127   MPKI: 1.61748
L2C LOAD      ACCESS:       8253  HIT:       5040  MISS:       3213  HIT %:    61.0687  MISS %:    38.9313   MPKI: 0.016065
L2C DATA LOAD MPKI: 0.016065
L2C INSTRUCTION LOAD MPKI: 0
L2C RFO       ACCESS:      70335  HIT:          0  MISS:      70335  HIT %:          0  MISS %:        100   MPKI: 0.351675
L2C PREFETCH  ACCESS:   10826263  HIT:   10601238  MISS:     225025  HIT %:    97.9215  MISS %:    2.07851   MPKI: 1.12512
L2C DATA PREFETCH MPKI: 1.12512
L2C INSTRUCTION PREFETCH MPKI: 0
L2C WRITEBACK ACCESS:      70324  HIT:      45996  MISS:      24328  HIT %:    65.4058  MISS %:    34.5942   MPKI: 0.12164
L2C LOAD TRANSLATION ACCESS:       4665  HIT:       4522  MISS:        143  HIT %:    96.9346  MISS %:    3.06538   MPKI: 0.000715
L2C TRANSLATION FROM L1D PREFETCHER ACCESS:     445972  HIT:     445520  MISS:        452  HIT %:    99.8986  MISS %:   0.101352   MPKI: 0.00226
L2C PREFETCH  REQUESTED:          0  ISSUED:          0  USEFUL:       5492  USELESS:     219712
L2C USEFUL LOAD PREFETCHES:       5492 PREFETCH ISSUED TO LOWER LEVEL:     225100  ACCURACY: 2.4398
L2C TIMELY PREFETCHES:       5492 LATE PREFETCHES: 51 DROPPED PREFETCHES: 0
L2C PREFETCHES SAME FILL-ORIGIN LEVEL: 182984 DIFFERENT FILL-ORIGIN LEVEL: 0
L2C AVERAGE MISS LATENCY: 144.862 cycles
L2C RQ	ACCESS:     529236	FORWARD:          0	MERGED:          0	TO_CACHE:     529236
L2C WQ	ACCESS:      70331	FORWARD:          0	MERGED:          0	TO_CACHE:      70331
L2C PQ	ACCESS:   10918207	FORWARD:          0	MERGED:       1372	TO_CACHE:   10916835

L2C Instructions Evicting Data 0
L2C Translations Evicting Data 597
L2C Data Evicting Data 298013
L2C Instructions Evicting Instructions 0
L2C Translations Evicting Instructions 0
L2C Data Evicting Instructions 0
L2C Instructions Evicting Translations 0
L2C Translations Evicting Translations 3
L2C Data Evicting Translations 589
L2C Dense regions hint from L2: 0
PSCL5 TOTAL     ACCESS:     450637  HIT:     450637  MISS:          0  HIT %:        100  MISS %:          0   MPKI: 0
PSCL5 LOAD TRANSLATION ACCESS:       4665  HIT:       4665  MISS:          0  HIT %:        100  MISS %:          0   MPKI: 0
PSCL5 TRANSLATION FROM L1D PREFETCHER ACCESS:     445972  HIT:     445972  MISS:          0  HIT %:        100  MISS %:          0   MPKI: 0
PSCL5 PREFETCH  REQUESTED:          0  ISSUED:          0  USEFUL:          0  USELESS:          0
PSCL5 USEFUL LOAD PREFETCHES:          0 PREFETCH ISSUED TO LOWER LEVEL:          0  ACCURACY: -nan
PSCL5 TIMELY PREFETCHES:          0 LATE PREFETCHES: 0 DROPPED PREFETCHES: 0
PSCL5 PREFETCHES SAME FILL-ORIGIN LEVEL: 0 DIFFERENT FILL-ORIGIN LEVEL: 0

PSCL4 TOTAL     ACCESS:     450637  HIT:     450637  MISS:          0  HIT %:        100  MISS %:          0   MPKI: 0
PSCL4 LOAD TRANSLATION ACCESS:       4665  HIT:       4665  MISS:          0  HIT %:        100  MISS %:          0   MPKI: 0
PSCL4 TRANSLATION FROM L1D PREFETCHER ACCESS:     445972  HIT:     445972  MISS:          0  HIT %:        100  MISS %:          0   MPKI: 0
PSCL4 PREFETCH  REQUESTED:          0  ISSUED:          0  USEFUL:          0  USELESS:          0
PSCL4 USEFUL LOAD PREFETCHES:          0 PREFETCH ISSUED TO LOWER LEVEL:          0  ACCURACY: -nan
PSCL4 TIMELY PREFETCHES:          0 LATE PREFETCHES: 0 DROPPED PREFETCHES: 0
PSCL4 PREFETCHES SAME FILL-ORIGIN LEVEL: 0 DIFFERENT FILL-ORIGIN LEVEL: 0

PSCL3 TOTAL     ACCESS:     450637  HIT:     450637  MISS:          0  HIT %:        100  MISS %:          0   MPKI: 0
PSCL3 LOAD TRANSLATION ACCESS:       4665  HIT:       4665  MISS:          0  HIT %:        100  MISS %:          0   MPKI: 0
PSCL3 TRANSLATION FROM L1D PREFETCHER ACCESS:     445972  HIT:     445972  MISS:          0  HIT %:        100  MISS %:          0   MPKI: 0
PSCL3 PREFETCH  REQUESTED:          0  ISSUED:          0  USEFUL:          0  USELESS:          0
PSCL3 USEFUL LOAD PREFETCHES:          0 PREFETCH ISSUED TO LOWER LEVEL:          0  ACCURACY: -nan
PSCL3 TIMELY PREFETCHES:          0 LATE PREFETCHES: 0 DROPPED PREFETCHES: 0
PSCL3 PREFETCHES SAME FILL-ORIGIN LEVEL: 0 DIFFERENT FILL-ORIGIN LEVEL: 0

PSCL2 TOTAL     ACCESS:     450109  HIT:     450101  MISS:          8  HIT %:    99.9982  MISS %: 0.00177735   MPKI: 4e-05
PSCL2 LOAD TRANSLATION ACCESS:       4665  HIT:       4657  MISS:          8  HIT %:    99.8285  MISS %:    0.17149   MPKI: 4e-05
PSCL2 TRANSLATION FROM L1D PREFETCHER ACCESS:     445444  HIT:     445444  MISS:          0  HIT %:        100  MISS %:          0   MPKI: 0
PSCL2 PREFETCH  REQUESTED:          0  ISSUED:          0  USEFUL:          0  USELESS:          0
PSCL2 USEFUL LOAD PREFETCHES:          0 PREFETCH ISSUED TO LOWER LEVEL:          0  ACCURACY: -nan
PSCL2 TIMELY PREFETCHES:          0 LATE PREFETCHES: 0 DROPPED PREFETCHES: 0
PSCL2 PREFETCHES SAME FILL-ORIGIN LEVEL: 0 DIFFERENT FILL-ORIGIN LEVEL: 0

LLC TOTAL     ACCESS:     369865  HIT:      65307  MISS:     304558  HIT %:     17.657  MISS %:     82.343   MPKI: 1.52279
LLC LOAD      ACCESS:       3162  HIT:          0  MISS:       3162  HIT %:          0  MISS %:        100   MPKI: 0.01581
LLC RFO       ACCESS:      70335  HIT:          0  MISS:      70335  HIT %:          0  MISS %:        100   MPKI: 0.351675
LLC PREFETCH  ACCESS:     225076  HIT:          5  MISS:     225071  HIT %: 0.00222147  MISS %:    99.9978   MPKI: 1.12536
LLC WRITEBACK ACCESS:      70697  HIT:      65297  MISS:       5400  HIT %:    92.3618  MISS %:    7.63823   MPKI: 0.027
LLC LOAD TRANSLATION ACCESS:        143  HIT:          4  MISS:        139  HIT %:     2.7972  MISS %:    97.2028   MPKI: 0.000695
LLC TRANSLATION FROM L1D PREFETCHER ACCESS:        452  HIT:          1  MISS:        451  HIT %:   0.221239  MISS %:    99.7788   MPKI: 0.002255
LLC PREFETCH  REQUESTED:          0  ISSUED:          0  USEFUL:          5  USELESS:     900315
LLC USEFUL LOAD PREFETCHES:          5 PREFETCH ISSUED TO LOWER LEVEL:     900368  ACCURACY: 0.000555328
LLC TIMELY PREFETCHES:          5 LATE PREFETCHES: 0 DROPPED PREFETCHES: 0
LLC PREFETCHES SAME FILL-ORIGIN LEVEL: 0 DIFFERENT FILL-ORIGIN LEVEL: 0
LLC AVERAGE MISS LATENCY: 512.274 cycles
LLC RQ	ACCESS:     296402	FORWARD:          0	MERGED:          0	TO_CACHE:     296402
LLC WQ	ACCESS:     283030	FORWARD:          0	MERGED:          0	TO_CACHE:     283030
LLC PQ	ACCESS:     900380	FORWARD:          0	MERGED:          0	TO_CACHE:     900380

LLC Dense regions hint to LLC: 0

RAW hits: 2885686
Loads Generated: 31467358
Loads sent to L1D: 28581672
Stores Generated: 13504211
Stores sent to L1D: 13504223
Major fault: 0 Minor fault: 5878
Allocated PAGES: 23512

CPU 3 cumulative IPC: 0.691917 instructions: 200000001 cycles: 289051961
ITLB TOTAL     ACCESS:   34799263  HIT:   34799263  MISS:          0  HIT %:        100  MISS %:          0   MPKI: 0
ITLB LOAD TRANSLATION ACCESS:   34799263  HIT:   34799263  MISS:          0  HIT %:        100  MISS %:          0   MPKI: 0
ITLB PREFETCH  REQUESTED:          0  ISSUED:          0  USEFUL:          0  USELESS:          0
ITLB USEFUL LOAD PREFETCHES:          0 PREFETCH ISSUED TO LOWER LEVEL:          0  ACCURACY: -nan
ITLB TIMELY PREFETCHES:          0 LATE PREFETCHES: 0 DROPPED PREFETCHES: 0
ITLB PREFETCHES SAME FILL-ORIGIN LEVEL: 0 DIFFERENT FILL-ORIGIN LEVEL: 0
ITLB AVERAGE MISS LATENCY: -nan cycles
ITLB RQ	ACCESS:   38563032	FORWARD:          0	MERGED:    3763769	TO_CACHE:   34799263

DTLB TOTAL     ACCESS:   32666040  HIT:   32661375  MISS:       4665  HIT %:    99.9857  MISS %:  0.0142809   MPKI: 0.023325
DTLB LOAD TRANSLATION ACCESS:   32666040  HIT:   32661375  MISS:       4665  HIT %:    99.9857  MISS %:  0.0142809   MPKI: 0.023325
DTLB PREFETCH  REQUESTED:          0  ISSUED:          0  USEFUL:          0  USELESS:          0
DTLB USEFUL LOAD PREFETCHES:          0 PREFETCH ISSUED TO LOWER LEVEL:          0  ACCURACY: -nan
DTLB TIMELY PREFETCHES:          0 LATE PREFETCHES: 0 DROPPED PREFETCHES: 0
DTLB PREFETCHES SAME FILL-ORIGIN LEVEL: 0 DIFFERENT FILL-ORIGIN LEVEL: 0
DTLB AVERAGE MISS LATENCY: 125.098 cycles
DTLB RQ	ACCESS:   38141036	FORWARD:          0	MERGED:    5474923	TO_CACHE:   32666113

STLB TOTAL     ACCESS:    5026733  HIT:    5022068  MISS:       4665  HIT %:    99.9072  MISS %:  0.0928038   MPKI: 0.023325
STLB LOAD TRANSLATION ACCESS:       4665  HIT:          0  MISS:       4665  HIT %:          0  MISS %:        100   MPKI: 0.023325
STLB TRANSLATION FROM L1D PREFETCHER ACCESS:    5022068  HIT:    5022068  MISS:          0  HIT %:        100  MISS %:          0   MPKI: 0
STLB PREFETCH  REQUESTED:          0  ISSUED:          0  USEFUL:          0  USELESS:          0
STLB USEFUL LOAD PREFETCHES:          0 PREFETCH ISSUED TO LOWER LEVEL:          0  ACCURACY: -nan
STLB TIMELY PREFETCHES:          0 LATE PREFETCHES: 117 DROPPED PREFETCHES: 444104
STLB PREFETCHES SAME FILL-ORIGIN LEVEL: 0 DIFFERENT FILL-ORIGIN LEVEL: 0
STLB AVERAGE MISS LATENCY: 116.398 cycles
STLB RQ	ACCESS:   25133936	FORWARD:          0	MERGED:   19659747	TO_CACHE:    5474189

STLB Hit, L1D data hit: 0
STLB Hit, L2C data hit: 0
STLB Hit, LLC data hit: 0
STLB Hit, LLC data miss: 0
STLB STLB hints to L2: 0
L1D TOTAL     ACCESS:   51222784  HIT:   50924217  MISS:     298567  HIT %:    99.4171  MISS %:   0.582879   MPKI: 1.49283
L1D LOAD      ACCESS:   24635037  HIT:   24626182  MISS:       8855  HIT %:    99.9641  MISS %:  0.0359447   MPKI: 0.044275
L1D RFO       ACCESS:   13481171  HIT:   13410836  MISS:      70335  HIT %:    99.4783  MISS %:   0.521728   MPKI: 0.351675
L1D PREFETCH  ACCESS:   13106576  HIT:   12887199  MISS:     219377  HIT %:    98.3262  MISS %:    1.67379   MPKI: 1.09688
L1D PREFETCH  REQUESTED:   52739479  ISSUED:   52738973  USEFUL:     219400  USELESS:          0
L1D USEFUL LOAD PREFETCHES:     219400 PREFETCH ISSUED TO LOWER LEVEL:   10863678  ACCURACY: 2.01957
L1D TIMELY PREFETCHES:     219400 LATE PREFETCHES: 349 DROPPED PREFETCHES: 1371056
L1D PREFETCHES SAME FILL-ORIGIN LEVEL: 219726 DIFFERENT FILL-ORIGIN LEVEL: 10643952
L1D AVERAGE MISS LATENCY: 76.4679 cycles
L1D RQ	ACCESS:   28581634	FORWARD:          0	MERGED:    3926785	TO_CACHE:   24636813
L1D WQ	ACCESS:   13504223	FORWARD:      18036	MERGED:          0	TO_CACHE:   13504223
L1D PQ	ACCESS:   27609702	FORWARD:          0	MERGED:    2480431	TO_CACHE:   25129271

L1D UNIQUE REGIONS ACCESSED: 0
L1D REGIONS CONFLICTS: 0
L1D Cross Page Prefetch Requests: 2229753
L1D Same Page Prefetch Requests: 34072554
L1D ROI Sum of L1D PQ occupancy: 334853991
L1D PREFETCHES PUSHED FROM L2C: 0
L1I TOTAL     ACCESS:   38563032  HIT:   38563032  MISS:          0  HIT %:        100  MISS %:          0   MPKI: 0
L1I LOAD      ACCESS:   38563032  HIT:   38563032  MISS:          0  HIT %:        100  MISS %:          0   MPKI: 0
L1I PREFETCH  REQUESTED:          0  ISSUED:          0  USEFUL:          0  USELESS:          0
L1I USEFUL LOAD PREFETCHES:          0 PREFETCH ISSUED TO LOWER LEVEL:          0  ACCURACY: -nan
L1I TIMELY PREFETCHES:          0 LATE PREFETCHES: 0 DROPPED PREFETCHES: 0
L1I PREFETCHES SAME FILL-ORIGIN LEVEL: 0 DIFFERENT FILL-ORIGIN LEVEL: 0
L1I AVERAGE MISS LATENCY: -nan cycles
L1I RQ	ACCESS:   54258748	FORWARD:          0	MERGED:   15695716	TO_CACHE:   38563032

BTB TOTAL     ACCESS:   31210181  HIT:   30084815  MISS:    1125366  HIT %:    96.3942  MISS %:    3.60577   MPKI: 5.62683
BTB BRANCH_DIRECT_JUMP	ACCESS:    7856211  HIT:    7856207  MISS:          4
BTB BRANCH_INDIRECT	ACCESS:          0  HIT:          0  MISS:          0
BTB BRANCH_CONDITIONAL	ACCESS:   21103270  HIT:   21103260  MISS:         10
BTB BRANCH_DIRECT_CALL	ACCESS:    1125350  HIT:    1125348  MISS:          2
BTB BRANCH_INDIRECT_CALL	ACCESS:          0  HIT:          0  MISS:          0
BTB BRANCH_RETURN	ACCESS:    1125350  HIT:          0  MISS:    1125350
BTB BRANCH_OTHER ACCESS:          0  HIT:          0  MISS:          0

L2C TOTAL     ACCESS:   11369580  HIT:   11046465  MISS:     323115  HIT %:    97.1581  MISS %:    2.84193   MPKI: 1.61557
L2C LOAD      ACCESS:       8506  HIT:       5289  MISS:       3217  HIT %:    62.1796  MISS %:    37.8204   MPKI: 0.016085
L2C DATA LOAD MPKI: 0.016085
L2C INSTRUCTION LOAD MPKI: 0
L2C RFO       ACCESS:      70335  HIT:          0  MISS:      70335  HIT %:          0  MISS %:        100   MPKI: 0.351675
L2C PREFETCH  ACCESS:   10771530  HIT:   10546510  MISS:     225020  HIT %:     97.911  MISS %:    2.08903   MPKI: 1.1251
L2C DATA PREFETCH MPKI: 1.1251
L2C INSTRUCTION PREFETCH MPKI: 0
L2C WRITEBACK ACCESS:      70323  HIT:      46375  MISS:      23948  HIT %:    65.9457  MISS %:    34.0543   MPKI: 0.11974
L2C LOAD TRANSLATION ACCESS:       4665  HIT:       4524  MISS:        141  HIT %:    96.9775  MISS %:    3.02251   MPKI: 0.000705
L2C TRANSLATION FROM L1D PREFETCHER ACCESS:     444221  HIT:     443767  MISS:        454  HIT %:    99.8978  MISS %:   0.102201   MPKI: 0.00227
L2C PREFETCH  REQUESTED:          0  ISSUED:          0  USEFUL:       5743  USELESS:     219333
L2C USEFUL LOAD PREFETCHES:       5743 PREFETCH ISSUED TO LOWER LEVEL:     225068  ACCURACY: 2.55167
L2C TIMELY PREFETCHES:       5743 LATE PREFETCHES: 48 DROPPED PREFETCHES: 0
L2C PREFETCHES SAME FILL-ORIGIN LEVEL: 182747 DIFFERENT FILL-ORIGIN LEVEL: 0
L2C AVERAGE MISS LATENCY: 149.043 cycles
L2C RQ	ACCESS:     527727	FORWARD:          0	MERGED:          0	TO_CACHE:     527727
L2C WQ	ACCESS:      70323	FORWARD:          0	MERGED:          0	TO_CACHE:      70323
L2C PQ	ACCESS:   10863678	FORWARD:          0	MERGED:       1390	TO_CACHE:   10862288

L2C Instructions Evicting Data 0
L2C Translations Evicting Data 591
L2C Data Evicting Data 298028
L2C Instructions Evicting Instructions 0
L2C Translations Evicting Instructions 0
L2C Data Evicting Instructions 0
L2C Instructions Evicting Translations 0
L2C Translations Evicting Translations 4
L2C Data Evicting Translations 544
L2C Dense regions hint from L2: 0
PSCL5 TOTAL     ACCESS:     448886  HIT:     448886  MISS:          0  HIT %:        100  MISS %:          0   MPKI: 0
PSCL5 LOAD TRANSLATION ACCESS:       4665  HIT:       4665  MISS:          0  HIT %:        100  MISS %:          0   MPKI: 0
PSCL5 TRANSLATION FROM L1D PREFETCHER ACCESS:     444221  HIT:     444221  MISS:          0  HIT %:        100  MISS %:          0   MPKI: 0
PSCL5 PREFETCH  REQUESTED:          0  ISSUED:          0  USEFUL:          0  USELESS:          0
PSCL5 USEFUL LOAD PREFETCHES:          0 PREFETCH ISSUED TO LOWER LEVEL:          0  ACCURACY: -nan
PSCL5 TIMELY PREFETCHES:          0 LATE PREFETCHES: 0 DROPPED PREFETCHES: 0
PSCL5 PREFETCHES SAME FILL-ORIGIN LEVEL: 0 DIFFERENT FILL-ORIGIN LEVEL: 0

PSCL4 TOTAL     ACCESS:     448886  HIT:     448886  MISS:          0  HIT %:        100  MISS %:          0   MPKI: 0
PSCL4 LOAD TRANSLATION ACCESS:       4665  HIT:       4665  MISS:          0  HIT %:        100  MISS %:          0   MPKI: 0
PSCL4 TRANSLATION FROM L1D PREFETCHER ACCESS:     444221  HIT:     444221  MISS:          0  HIT %:        100  MISS %:          0   MPKI: 0
PSCL4 PREFETCH  REQUESTED:          0  ISSUED:          0  USEFUL:          0  USELESS:          0
PSCL4 USEFUL LOAD PREFETCHES:          0 PREFETCH ISSUED TO LOWER LEVEL:          0  ACCURACY: -nan
PSCL4 TIMELY PREFETCHES:          0 LATE PREFETCHES: 0 DROPPED PREFETCHES: 0
PSCL4 PREFETCHES SAME FILL-ORIGIN LEVEL: 0 DIFFERENT FILL-ORIGIN LEVEL: 0

PSCL3 TOTAL     ACCESS:     448886  HIT:     448886  MISS:          0  HIT %:        100  MISS %:          0   MPKI: 0
PSCL3 LOAD TRANSLATION ACCESS:       4665  HIT:       4665  MISS:          0  HIT %:        100  MISS %:          0   MPKI: 0
PSCL3 TRANSLATION FROM L1D PREFETCHER ACCESS:     444221  HIT:     444221  MISS:          0  HIT %:        100  MISS %:          0   MPKI: 0
PSCL3 PREFETCH  REQUESTED:          0  ISSUED:          0  USEFUL:          0  USELESS:          0
PSCL3 USEFUL LOAD PREFETCHES:          0 PREFETCH ISSUED TO LOWER LEVEL:          0  ACCURACY: -nan
PSCL3 TIMELY PREFETCHES:          0 LATE PREFETCHES: 0 DROPPED PREFETCHES: 0
PSCL3 PREFETCHES SAME FILL-ORIGIN LEVEL: 0 DIFFERENT FILL-ORIGIN LEVEL: 0

PSCL2 TOTAL     ACCESS:     448368  HIT:     448360  MISS:          8  HIT %:    99.9982  MISS %: 0.00178425   MPKI: 4e-05
PSCL2 LOAD TRANSLATION ACCESS:       4665  HIT:       4657  MISS:          8  HIT %:    99.8285  MISS %:    0.17149   MPKI: 4e-05
PSCL2 TRANSLATION FROM L1D PREFETCHER ACCESS:     443703  HIT:     443703  MISS:          0  HIT %:        100  MISS %:          0   MPKI: 0
PSCL2 PREFETCH  REQUESTED:          0  ISSUED:          0  USEFUL:          0  USELESS:          0
PSCL2 USEFUL LOAD PREFETCHES:          0 PREFETCH ISSUED TO LOWER LEVEL:          0  ACCURACY: -nan
PSCL2 TIMELY PREFETCHES:          0 LATE PREFETCHES: 0 DROPPED PREFETCHES: 0
PSCL2 PREFETCHES SAME FILL-ORIGIN LEVEL: 0 DIFFERENT FILL-ORIGIN LEVEL: 0

LLC TOTAL     ACCESS:     369939  HIT:      64927  MISS:     305012  HIT %:    17.5507  MISS %:    82.4493   MPKI: 1.52506
LLC LOAD      ACCESS:       3169  HIT:          0  MISS:       3169  HIT %:          0  MISS %:        100   MPKI: 0.015845
LLC RFO       ACCESS:      70335  HIT:          0  MISS:      70335  HIT %:          0  MISS %:        100   MPKI: 0.351675
LLC PREFETCH  ACCESS:     225068  HIT:          3  MISS:     225065  HIT %: 0.00133293  MISS %:    99.9987   MPKI: 1.12532
LLC WRITEBACK ACCESS:      70772  HIT:      64919  MISS:       5853  HIT %:    91.7298  MISS %:    8.27022   MPKI: 0.029265
LLC LOAD TRANSLATION ACCESS:        141  HIT:          2  MISS:        139  HIT %:    1.41844  MISS %:    98.5816   MPKI: 0.000695
LLC TRANSLATION FROM L1D PREFETCHER ACCESS:        454  HIT:          3  MISS:        451  HIT %:   0.660793  MISS %:    99.3392   MPKI: 0.002255
LLC PREFETCH  REQUESTED:          0  ISSUED:          0  USEFUL:          5  USELESS:     900315
LLC USEFUL LOAD PREFETCHES:          5 PREFETCH ISSUED TO LOWER LEVEL:     900368  ACCURACY: 0.000555328
LLC TIMELY PREFETCHES:          5 LATE PREFETCHES: 0 DROPPED PREFETCHES: 0
LLC PREFETCHES SAME FILL-ORIGIN LEVEL: 0 DIFFERENT FILL-ORIGIN LEVEL: 0
LLC AVERAGE MISS LATENCY: 511.512 cycles
LLC RQ	ACCESS:     296402	FORWARD:          0	MERGED:          0	TO_CACHE:     296402
LLC WQ	ACCESS:     283030	FORWARD:          0	MERGED:          0	TO_CACHE:     283030
LLC PQ	ACCESS:     900380	FORWARD:          0	MERGED:          0	TO_CACHE:     900380

LLC Dense regions hint to LLC: 0

RAW hits: 2885724
Loads Generated: 31467358
Loads sent to L1D: 28581634
Stores Generated: 13504211
Stores sent to L1D: 13504223
Major fault: 0 Minor fault: 5878
Allocated PAGES: 23512

DRAM Statistics
 CHANNEL 0
 RQ ROW_BUFFER_HIT:     666350  ROW_BUFFER_MISS:     530403
 DBUS_CONGESTED:       3570
 WQ ROW_BUFFER_HIT:      44885  ROW_BUFFER_MISS:     237957  FULL:          0

 AVG_CONGESTED_CYCLE: 6
 All warmup complete: 5
Channel 0 Bank busy for read cycles: 0
Channel 0 Bank busy for write cycles: 0
Channel 0
Rank 0
0banks busy for read cycles: 165867379
0banks busy for write cycles: 195259
1banks busy for read cycles: 71510565
1banks busy for write cycles: 27306898
2banks busy for read cycles: 13258723
2banks busy for write cycles: 5743941
3banks busy for read cycles: 1717188
3banks busy for write cycles: 1152819
4banks busy for read cycles: 367712
4banks busy for write cycles: 328043
5banks busy for read cycles: 212566
5banks busy for write cycles: 160254
6banks busy for read cycles: 199564
6banks busy for write cycles: 111234
7banks busy for read cycles: 262427
7banks busy for write cycles: 81745
8banks busy for read cycles: 519847
8banks busy for write cycles: 55798

CPU 0 Branch Prediction Accuracy: 97.5317% MPKI: 7.17723 Average ROB Occupancy at Mispredict: 53.6282
Branch types
NOT_BRANCH: 141848403 70.9224%
BRANCH_DIRECT_JUMP: 7856413 3.92811%
BRANCH_INDIRECT: 0 0%
BRANCH_CONDITIONAL: 48049193 24.024%
BRANCH_DIRECT_CALL: 1125379 0.562675%
BRANCH_INDIRECT_CALL: 0 0%
BRANCH_RETURN: 1125378 0.562675%
BRANCH_OTHER: 0 0%


CPU 1 Branch Prediction Accuracy: 97.5317% MPKI: 7.17722 Average ROB Occupancy at Mispredict: 53.6265
Branch types
NOT_BRANCH: 141848364 70.9224%
BRANCH_DIRECT_JUMP: 7856411 3.92811%
BRANCH_INDIRECT: 0 0%
BRANCH_CONDITIONAL: 48049177 24.024%
BRANCH_DIRECT_CALL: 1125379 0.562675%
BRANCH_INDIRECT_CALL: 0 0%
BRANCH_RETURN: 1125379 0.562675%
BRANCH_OTHER: 0 0%


CPU 2 Branch Prediction Accuracy: 97.5317% MPKI: 7.17712 Average ROB Occupancy at Mispredict: 53.6274
Branch types
NOT_BRANCH: 141846172 70.9224%
BRANCH_DIRECT_JUMP: 7856290 3.92811%
BRANCH_INDIRECT: 0 0%
BRANCH_CONDITIONAL: 48048435 24.024%
BRANCH_DIRECT_CALL: 1125361 0.562675%
BRANCH_INDIRECT_CALL: 0 0%
BRANCH_RETURN: 1125361 0.562675%
BRANCH_OTHER: 0 0%


CPU 3 Branch Prediction Accuracy: 97.5317% MPKI: 7.17709 Average ROB Occupancy at Mispredict: 53.6296
Branch types
NOT_BRANCH: 141844759 70.9224%
BRANCH_DIRECT_JUMP: 7856211 3.92811%
BRANCH_INDIRECT: 0 0%
BRANCH_CONDITIONAL: 48047953 24.024%
BRANCH_DIRECT_CALL: 1125350 0.562675%
BRANCH_INDIRECT_CALL: 0 0%
BRANCH_RETURN: 1125350 0.562675%
BRANCH_OTHER: 0 0%

DRAM PAGES: 1048576
Allocated PAGES: 23512
