
*** ChampSim Multicore Out-of-Order Simulator ***

Warmup Instructions: 50000000
Simulation Instructions: 200000000
Number of CPUs: 4
LLC sets: 8192
LLC ways: 16
Off-chip DRAM Size: 4096 MB Channels: 1 Width: 64-bit Data Rate: 6400 MT/s
CPU 0 runs ./traces/gap/bc-12.trace.gz
.gz
CPU 1 runs ./traces/gap/bc-12.trace.gz
.gz
CPU 2 runs ./traces/gap/bc-12.trace.gz
.gz
CPU 3 runs ./traces/gap/bc-12.trace.gz
.gz
BTB has LRU replacement policy
ITLB has LRU replacement policy
DTLB has LRU replacement policy
STLB has LRU replacement policy
L1I has LRU replacement policy
History Sets: 8
History Ways: 16
BERTI Size: 16
BERTI Stride Size: 8
L1D has LRU replacement policy
Initialize SRRIP state for L2C
Initialize DRRIP state for LLC
BTB has LRU replacement policy
ITLB has LRU replacement policy
DTLB has LRU replacement policy
STLB has LRU replacement policy
L1I has LRU replacement policy
History Sets: 8
History Ways: 16
BERTI Size: 16
BERTI Stride Size: 8
L1D has LRU replacement policy
Initialize SRRIP state for L2C
Initialize DRRIP state for LLC
BTB has LRU replacement policy
ITLB has LRU replacement policy
DTLB has LRU replacement policy
STLB has LRU replacement policy
L1I has LRU replacement policy
History Sets: 8
History Ways: 16
BERTI Size: 16
BERTI Stride Size: 8
L1D has LRU replacement policy
Initialize SRRIP state for L2C
Initialize DRRIP state for LLC
BTB has LRU replacement policy
ITLB has LRU replacement policy
DTLB has LRU replacement policy
STLB has LRU replacement policy
L1I has LRU replacement policy
History Sets: 8
History Ways: 16
BERTI Size: 16
BERTI Stride Size: 8
L1D has LRU replacement policy
Initialize SRRIP state for L2C
Initialize DRRIP state for LLC
Heartbeat CPU 0 instructions: 10000001 cycles: 3518221 heartbeat IPC: 2.84235 cumulative IPC: 2.84235 (Simulation time: 0 hr 3 min 55 sec) 
Heartbeat CPU 1 instructions: 10000001 cycles: 3518729 heartbeat IPC: 2.84194 cumulative IPC: 2.84194 (Simulation time: 0 hr 3 min 55 sec) 
Heartbeat CPU 2 instructions: 10000001 cycles: 3543092 heartbeat IPC: 2.82239 cumulative IPC: 2.82239 (Simulation time: 0 hr 3 min 57 sec) 
Heartbeat CPU 3 instructions: 10000001 cycles: 3725261 heartbeat IPC: 2.68438 cumulative IPC: 2.68438 (Simulation time: 0 hr 4 min 13 sec) 
Heartbeat CPU 0 instructions: 20000000 cycles: 6515353 heartbeat IPC: 3.33652 cumulative IPC: 3.06967 (Simulation time: 0 hr 7 min 49 sec) 
Heartbeat CPU 1 instructions: 20000000 cycles: 6517075 heartbeat IPC: 3.33517 cumulative IPC: 3.06886 (Simulation time: 0 hr 7 min 50 sec) 
Heartbeat CPU 2 instructions: 20000000 cycles: 6548588 heartbeat IPC: 3.32724 cumulative IPC: 3.05409 (Simulation time: 0 hr 7 min 52 sec) 
Heartbeat CPU 3 instructions: 20000000 cycles: 6734410 heartbeat IPC: 3.3232 cumulative IPC: 2.96982 (Simulation time: 0 hr 8 min 6 sec) 
Heartbeat CPU 0 instructions: 30000002 cycles: 9502895 heartbeat IPC: 3.34723 cumulative IPC: 3.15693 (Simulation time: 0 hr 11 min 50 sec) 
Heartbeat CPU 1 instructions: 30000001 cycles: 9506623 heartbeat IPC: 3.34499 cumulative IPC: 3.15569 (Simulation time: 0 hr 11 min 50 sec) 
Heartbeat CPU 2 instructions: 30000001 cycles: 9542865 heartbeat IPC: 3.3397 cumulative IPC: 3.14371 (Simulation time: 0 hr 11 min 53 sec) 
Heartbeat CPU 3 instructions: 30000002 cycles: 9731746 heartbeat IPC: 3.3363 cumulative IPC: 3.08269 (Simulation time: 0 hr 12 min 9 sec) 
Heartbeat CPU 0 instructions: 40000001 cycles: 12492257 heartbeat IPC: 3.3452 cumulative IPC: 3.20198 (Simulation time: 0 hr 15 min 59 sec) 
Heartbeat CPU 1 instructions: 40000001 cycles: 12501795 heartbeat IPC: 3.33871 cumulative IPC: 3.19954 (Simulation time: 0 hr 16 min 0 sec) 
Heartbeat CPU 2 instructions: 40000001 cycles: 12548798 heartbeat IPC: 3.32675 cumulative IPC: 3.18756 (Simulation time: 0 hr 16 min 3 sec) 
Heartbeat CPU 3 instructions: 40000001 cycles: 12760401 heartbeat IPC: 3.3018 cumulative IPC: 3.1347 (Simulation time: 0 hr 16 min 20 sec) 
Heartbeat CPU 0 instructions: 50000001 cycles: 15575964 heartbeat IPC: 3.24285 cumulative IPC: 3.21007 (Simulation time: 0 hr 20 min 8 sec) 
Heartbeat CPU 1 instructions: 50000001 cycles: 15585879 heartbeat IPC: 3.24245 cumulative IPC: 3.20803 (Simulation time: 0 hr 20 min 8 sec) 
Heartbeat CPU 2 instructions: 50000001 cycles: 15627961 heartbeat IPC: 3.24764 cumulative IPC: 3.19939 (Simulation time: 0 hr 20 min 11 sec) 
Heartbeat CPU 3 instructions: 50000001 cycles: 15822008 heartbeat IPC: 3.26626 cumulative IPC: 3.16016 (Simulation time: 0 hr 20 min 18 sec) 

Warmup complete CPU 0 instructions: 50372961 cycles: 15822008 (Simulation time: 0 hr 20 min 18 sec) 
Warmup complete CPU 1 instructions: 50357915 cycles: 15822008 (Simulation time: 0 hr 20 min 18 sec) 
Warmup complete CPU 2 instructions: 50294454 cycles: 15822008 (Simulation time: 0 hr 20 min 18 sec) 
Warmup complete CPU 3 instructions: 50000001 cycles: 15822008 (Simulation time: 0 hr 20 min 18 sec) 

Heartbeat CPU 0 instructions: 60000000 cycles: 119649811 heartbeat IPC: 0.0960856 cumulative IPC: 0.0927212 (Simulation time: 0 hr 27 min 49 sec) 
Heartbeat CPU 1 instructions: 60000000 cycles: 120011303 heartbeat IPC: 0.0957621 cumulative IPC: 0.0925439 (Simulation time: 0 hr 27 min 50 sec) 
Heartbeat CPU 2 instructions: 60000000 cycles: 120426736 heartbeat IPC: 0.095421 cumulative IPC: 0.0927831 (Simulation time: 0 hr 27 min 52 sec) 
Heartbeat CPU 3 instructions: 60000000 cycles: 120872683 heartbeat IPC: 0.0951921 cumulative IPC: 0.0951921 (Simulation time: 0 hr 27 min 54 sec) 
Heartbeat CPU 0 instructions: 70000000 cycles: 223746474 heartbeat IPC: 0.0960646 cumulative IPC: 0.094395 (Simulation time: 0 hr 35 min 21 sec) 
Heartbeat CPU 1 instructions: 70000002 cycles: 224164483 heartbeat IPC: 0.0960125 cumulative IPC: 0.0942779 (Simulation time: 0 hr 35 min 23 sec) 
Heartbeat CPU 3 instructions: 70000000 cycles: 224695426 heartbeat IPC: 0.096318 cumulative IPC: 0.0957518 (Simulation time: 0 hr 35 min 25 sec) 
Heartbeat CPU 2 instructions: 70000000 cycles: 224803393 heartbeat IPC: 0.0958069 cumulative IPC: 0.0942933 (Simulation time: 0 hr 35 min 26 sec) 
Heartbeat CPU 0 instructions: 80000002 cycles: 326470353 heartbeat IPC: 0.0973484 cumulative IPC: 0.0953716 (Simulation time: 0 hr 42 min 45 sec) 
Heartbeat CPU 1 instructions: 80000001 cycles: 326987780 heartbeat IPC: 0.0972542 cumulative IPC: 0.0952614 (Simulation time: 0 hr 42 min 47 sec) 
Heartbeat CPU 3 instructions: 80000002 cycles: 327119558 heartbeat IPC: 0.0976333 cumulative IPC: 0.0963708 (Simulation time: 0 hr 42 min 48 sec) 
Heartbeat CPU 2 instructions: 80000001 cycles: 327488014 heartbeat IPC: 0.0973856 cumulative IPC: 0.0953121 (Simulation time: 0 hr 42 min 49 sec) 
Heartbeat CPU 0 instructions: 90000002 cycles: 428571094 heartbeat IPC: 0.0979425 cumulative IPC: 0.0960076 (Simulation time: 0 hr 50 min 1 sec) 
Heartbeat CPU 3 instructions: 90000002 cycles: 429098894 heartbeat IPC: 0.0980591 cumulative IPC: 0.0967874 (Simulation time: 0 hr 50 min 3 sec) 
Heartbeat CPU 1 instructions: 90000002 cycles: 429327825 heartbeat IPC: 0.0977135 cumulative IPC: 0.0958683 (Simulation time: 0 hr 50 min 4 sec) 
Heartbeat CPU 2 instructions: 90000002 cycles: 429775664 heartbeat IPC: 0.0977635 cumulative IPC: 0.0959179 (Simulation time: 0 hr 50 min 6 sec) 
Heartbeat CPU 0 instructions: 100000001 cycles: 530470161 heartbeat IPC: 0.0981363 cumulative IPC: 0.0964291 (Simulation time: 0 hr 56 min 54 sec) 
Heartbeat CPU 3 instructions: 100000001 cycles: 531023970 heartbeat IPC: 0.0981113 cumulative IPC: 0.0970493 (Simulation time: 0 hr 56 min 56 sec) 
Heartbeat CPU 1 instructions: 100000001 cycles: 531396756 heartbeat IPC: 0.097973 cumulative IPC: 0.0962849 (Simulation time: 0 hr 56 min 57 sec) 
Heartbeat CPU 2 instructions: 100000001 cycles: 531890958 heartbeat IPC: 0.0979285 cumulative IPC: 0.0963157 (Simulation time: 0 hr 56 min 59 sec) 
Heartbeat CPU 0 instructions: 110000000 cycles: 632211400 heartbeat IPC: 0.0982886 cumulative IPC: 0.096736 (Simulation time: 1 hr 2 min 49 sec) 
Heartbeat CPU 3 instructions: 110000000 cycles: 632578621 heartbeat IPC: 0.0984691 cumulative IPC: 0.0972831 (Simulation time: 1 hr 2 min 50 sec) 
Heartbeat CPU 1 instructions: 110000000 cycles: 633237221 heartbeat IPC: 0.0981928 cumulative IPC: 0.0965996 (Simulation time: 1 hr 2 min 52 sec) 
Heartbeat CPU 2 instructions: 110000000 cycles: 634002927 heartbeat IPC: 0.0979317 cumulative IPC: 0.0965826 (Simulation time: 1 hr 2 min 55 sec) 
Heartbeat CPU 0 instructions: 120000001 cycles: 736165402 heartbeat IPC: 0.0961964 cumulative IPC: 0.0966581 (Simulation time: 1 hr 9 min 12 sec) 
Heartbeat CPU 3 instructions: 120000001 cycles: 736441426 heartbeat IPC: 0.0962809 cumulative IPC: 0.0971387 (Simulation time: 1 hr 9 min 13 sec) 
Heartbeat CPU 1 instructions: 120000001 cycles: 737434905 heartbeat IPC: 0.0959714 cumulative IPC: 0.0965089 (Simulation time: 1 hr 9 min 17 sec) 
Heartbeat CPU 2 instructions: 120000001 cycles: 738111568 heartbeat IPC: 0.0960535 cumulative IPC: 0.0965064 (Simulation time: 1 hr 9 min 20 sec) 
Heartbeat CPU 0 instructions: 130000003 cycles: 837706356 heartbeat IPC: 0.0984825 cumulative IPC: 0.0968835 (Simulation time: 1 hr 16 min 34 sec) 
Heartbeat CPU 3 instructions: 130000003 cycles: 838049276 heartbeat IPC: 0.0984176 cumulative IPC: 0.0972967 (Simulation time: 1 hr 16 min 36 sec) 
Heartbeat CPU 1 instructions: 130000003 cycles: 839062951 heartbeat IPC: 0.0983981 cumulative IPC: 0.0967421 (Simulation time: 1 hr 16 min 39 sec) 
Heartbeat CPU 2 instructions: 130000003 cycles: 839611784 heartbeat IPC: 0.098522 cumulative IPC: 0.0967547 (Simulation time: 1 hr 16 min 41 sec) 
Heartbeat CPU 0 instructions: 140000000 cycles: 942417617 heartbeat IPC: 0.0955007 cumulative IPC: 0.0967272 (Simulation time: 1 hr 22 min 55 sec) 
Heartbeat CPU 3 instructions: 140000002 cycles: 942494350 heartbeat IPC: 0.0957441 cumulative IPC: 0.0971217 (Simulation time: 1 hr 22 min 55 sec) 
Heartbeat CPU 1 instructions: 140000000 cycles: 943240224 heartbeat IPC: 0.0959902 cumulative IPC: 0.0966577 (Simulation time: 1 hr 22 min 59 sec) 
Heartbeat CPU 2 instructions: 140000000 cycles: 943826018 heartbeat IPC: 0.0959562 cumulative IPC: 0.096665 (Simulation time: 1 hr 23 min 1 sec) 
Heartbeat CPU 0 instructions: 150000001 cycles: 1043650951 heartbeat IPC: 0.0987817 cumulative IPC: 0.0969296 (Simulation time: 1 hr 29 min 20 sec) 
Heartbeat CPU 3 instructions: 150000000 cycles: 1043892108 heartbeat IPC: 0.0986215 cumulative IPC: 0.0972696 (Simulation time: 1 hr 29 min 21 sec) 
Heartbeat CPU 1 instructions: 150000000 cycles: 1044681462 heartbeat IPC: 0.0985792 cumulative IPC: 0.0968471 (Simulation time: 1 hr 29 min 24 sec) 
Heartbeat CPU 2 instructions: 150000001 cycles: 1045319438 heartbeat IPC: 0.0985286 cumulative IPC: 0.0968488 (Simulation time: 1 hr 29 min 27 sec) 
Heartbeat CPU 0 instructions: 160000001 cycles: 1149763586 heartbeat IPC: 0.0942395 cumulative IPC: 0.0966779 (Simulation time: 1 hr 36 min 40 sec) 
Heartbeat CPU 3 instructions: 160000001 cycles: 1149774234 heartbeat IPC: 0.0944447 cumulative IPC: 0.0970059 (Simulation time: 1 hr 36 min 40 sec) 
Heartbeat CPU 1 instructions: 160000001 cycles: 1150307247 heartbeat IPC: 0.0946739 cumulative IPC: 0.0966448 (Simulation time: 1 hr 36 min 42 sec) 
Heartbeat CPU 2 instructions: 160000001 cycles: 1150836974 heartbeat IPC: 0.094771 cumulative IPC: 0.0966556 (Simulation time: 1 hr 36 min 44 sec) 
Heartbeat CPU 0 instructions: 170000003 cycles: 1257303162 heartbeat IPC: 0.092989 cumulative IPC: 0.0963583 (Simulation time: 1 hr 43 min 52 sec) 
Heartbeat CPU 1 instructions: 170000003 cycles: 1257441163 heartbeat IPC: 0.0933411 cumulative IPC: 0.0963597 (Simulation time: 1 hr 43 min 52 sec) 
Heartbeat CPU 3 instructions: 170000003 cycles: 1257449339 heartbeat IPC: 0.092872 cumulative IPC: 0.0966474 (Simulation time: 1 hr 43 min 52 sec) 
Heartbeat CPU 2 instructions: 170000003 cycles: 1257777446 heartbeat IPC: 0.09351 cumulative IPC: 0.0963847 (Simulation time: 1 hr 43 min 54 sec) 
Heartbeat CPU 0 instructions: 180000001 cycles: 1360118721 heartbeat IPC: 0.0972615 cumulative IPC: 0.0964274 (Simulation time: 1 hr 51 min 38 sec) 
Heartbeat CPU 3 instructions: 180000001 cycles: 1360127043 heartbeat IPC: 0.0973921 cumulative IPC: 0.0967042 (Simulation time: 1 hr 51 min 38 sec) 
Heartbeat CPU 1 instructions: 180000001 cycles: 1360515695 heartbeat IPC: 0.0970172 cumulative IPC: 0.0964101 (Simulation time: 1 hr 51 min 40 sec) 
Heartbeat CPU 2 instructions: 180000001 cycles: 1360689346 heartbeat IPC: 0.0971705 cumulative IPC: 0.0964449 (Simulation time: 1 hr 51 min 41 sec) 
Heartbeat CPU 3 instructions: 190000003 cycles: 1462408792 heartbeat IPC: 0.0977692 cumulative IPC: 0.0967795 (Simulation time: 1 hr 59 min 15 sec) 
Heartbeat CPU 0 instructions: 190000000 cycles: 1462440567 heartbeat IPC: 0.0977308 cumulative IPC: 0.0965196 (Simulation time: 1 hr 59 min 15 sec) 
Heartbeat CPU 1 instructions: 190000003 cycles: 1462683354 heartbeat IPC: 0.0978784 cumulative IPC: 0.0965138 (Simulation time: 1 hr 59 min 16 sec) 
Heartbeat CPU 2 instructions: 190000003 cycles: 1462890892 heartbeat IPC: 0.0978459 cumulative IPC: 0.0965438 (Simulation time: 1 hr 59 min 17 sec) 
Heartbeat CPU 3 instructions: 200000000 cycles: 1561231193 heartbeat IPC: 0.101192 cumulative IPC: 0.0970617 (Simulation time: 2 hr 6 min 0 sec) 
Heartbeat CPU 0 instructions: 200000000 cycles: 1561775472 heartbeat IPC: 0.10067 cumulative IPC: 0.0967863 (Simulation time: 2 hr 6 min 2 sec) 
Heartbeat CPU 1 instructions: 200000000 cycles: 1562012403 heartbeat IPC: 0.100675 cumulative IPC: 0.0967811 (Simulation time: 2 hr 6 min 3 sec) 
Heartbeat CPU 2 instructions: 200000000 cycles: 1562086541 heartbeat IPC: 0.100811 cumulative IPC: 0.0968176 (Simulation time: 2 hr 6 min 4 sec) 
Heartbeat CPU 3 instructions: 210000002 cycles: 1660433521 heartbeat IPC: 0.100804 cumulative IPC: 0.0972874 (Simulation time: 2 hr 13 min 4 sec) 
Heartbeat CPU 0 instructions: 210000002 cycles: 1661003676 heartbeat IPC: 0.100778 cumulative IPC: 0.097027 (Simulation time: 2 hr 13 min 6 sec) 
Heartbeat CPU 1 instructions: 210000002 cycles: 1661312071 heartbeat IPC: 0.100705 cumulative IPC: 0.097018 (Simulation time: 2 hr 13 min 7 sec) 
Heartbeat CPU 2 instructions: 210000002 cycles: 1661553224 heartbeat IPC: 0.100536 cumulative IPC: 0.0970423 (Simulation time: 2 hr 13 min 8 sec) 
Heartbeat CPU 3 instructions: 220000000 cycles: 1759232923 heartbeat IPC: 0.101215 cumulative IPC: 0.09751 (Simulation time: 2 hr 20 min 6 sec) 
Heartbeat CPU 0 instructions: 220000000 cycles: 1759595393 heartbeat IPC: 0.101428 cumulative IPC: 0.0972759 (Simulation time: 2 hr 20 min 8 sec) 
Heartbeat CPU 1 instructions: 220000000 cycles: 1760296900 heartbeat IPC: 0.101026 cumulative IPC: 0.0972454 (Simulation time: 2 hr 20 min 10 sec) 
Heartbeat CPU 2 instructions: 220000000 cycles: 1760619414 heartbeat IPC: 0.100943 cumulative IPC: 0.0972638 (Simulation time: 2 hr 20 min 12 sec) 
Heartbeat CPU 3 instructions: 230000000 cycles: 1857799141 heartbeat IPC: 0.101455 cumulative IPC: 0.0977211 (Simulation time: 2 hr 27 min 14 sec) 
Heartbeat CPU 0 instructions: 230000001 cycles: 1858339017 heartbeat IPC: 0.101272 cumulative IPC: 0.09749 (Simulation time: 2 hr 27 min 16 sec) 
Heartbeat CPU 1 instructions: 230000001 cycles: 1859115782 heartbeat IPC: 0.101195 cumulative IPC: 0.0974571 (Simulation time: 2 hr 27 min 19 sec) 
Heartbeat CPU 2 instructions: 230000001 cycles: 1859723520 heartbeat IPC: 0.100904 cumulative IPC: 0.0974594 (Simulation time: 2 hr 27 min 22 sec) 
Heartbeat CPU 3 instructions: 240000002 cycles: 1957004951 heartbeat IPC: 0.100801 cumulative IPC: 0.0978785 (Simulation time: 2 hr 34 min 24 sec) 
Heartbeat CPU 0 instructions: 240000001 cycles: 1957664070 heartbeat IPC: 0.10068 cumulative IPC: 0.0976532 (Simulation time: 2 hr 34 min 27 sec) 
Heartbeat CPU 1 instructions: 240000001 cycles: 1958757188 heartbeat IPC: 0.10036 cumulative IPC: 0.097606 (Simulation time: 2 hr 34 min 32 sec) 
Heartbeat CPU 2 instructions: 240000001 cycles: 1959305566 heartbeat IPC: 0.10042 cumulative IPC: 0.0976111 (Simulation time: 2 hr 34 min 34 sec) 
Heartbeat CPU 3 instructions: 250000003 cycles: 2055197795 heartbeat IPC: 0.10184 cumulative IPC: 0.0980692 (Simulation time: 2 hr 41 min 32 sec) 
Finished CPU 3 instructions: 200000002 cycles: 2039375787 cumulative IPC: 0.0980692 (Simulation time: 2 hr 41 min 32 sec) 
Heartbeat CPU 0 instructions: 250000003 cycles: 2056155438 heartbeat IPC: 0.101532 cumulative IPC: 0.0978404 (Simulation time: 2 hr 41 min 35 sec) 
Heartbeat CPU 1 instructions: 250000000 cycles: 2057188939 heartbeat IPC: 0.101593 cumulative IPC: 0.0977982 (Simulation time: 2 hr 41 min 39 sec) 
Heartbeat CPU 2 instructions: 250000003 cycles: 2057849568 heartbeat IPC: 0.101478 cumulative IPC: 0.0977977 (Simulation time: 2 hr 41 min 42 sec) 
Finished CPU 0 instructions: 200000001 cycles: 2043940087 cumulative IPC: 0.0978502 (Simulation time: 2 hr 41 min 48 sec) 
Finished CPU 1 instructions: 200000001 cycles: 2044838183 cumulative IPC: 0.0978073 (Simulation time: 2 hr 41 min 51 sec) 
Finished CPU 2 instructions: 200000001 cycles: 2044902060 cumulative IPC: 0.0978042 (Simulation time: 2 hr 41 min 51 sec) 

ChampSim completed all CPUs

Total Simulation Statistics (not including warmup)

CPU 0 cumulative IPC: 0.0978532 instructions: 200100277 cycles: 2044902060
ITLB TOTAL     ACCESS:   36669203  HIT:   36669203  MISS:          0  HIT %:        100  MISS %:          0   MPKI: 0
ITLB LOAD      ACCESS:          0  HIT:          0  MISS:          0  HIT %:       -nan  MISS %:       -nan   MPKI: 0
ITLB RFO       ACCESS:          0  HIT:          0  MISS:          0  HIT %:       -nan  MISS %:       -nan   MPKI: 0
ITLB PREFETCH  ACCESS:          0  HIT:          0  MISS:          0  HIT %:       -nan  MISS %:       -nan   MPKI: 0
ITLB WRITEBACK ACCESS:          0  HIT:          0  MISS:          0  HIT %:       -nan  MISS %:       -nan   MPKI: 0
DTLB TOTAL     ACCESS:   56051091  HIT:   47525790  MISS:    8525301  HIT %:    84.7901  MISS %:    15.2099   MPKI: 42.6051
DTLB LOAD      ACCESS:          0  HIT:          0  MISS:          0  HIT %:       -nan  MISS %:       -nan   MPKI: 0
DTLB RFO       ACCESS:          0  HIT:          0  MISS:          0  HIT %:       -nan  MISS %:       -nan   MPKI: 0
DTLB PREFETCH  ACCESS:          0  HIT:          0  MISS:          0  HIT %:       -nan  MISS %:       -nan   MPKI: 0
DTLB WRITEBACK ACCESS:          0  HIT:          0  MISS:          0  HIT %:       -nan  MISS %:       -nan   MPKI: 0
STLB TOTAL     ACCESS:   22488029  HIT:   19128830  MISS:    3359199  HIT %:    85.0623  MISS %:    14.9377   MPKI: 16.7876
STLB LOAD      ACCESS:          0  HIT:          0  MISS:          0  HIT %:       -nan  MISS %:       -nan   MPKI: 0
STLB RFO       ACCESS:          0  HIT:          0  MISS:          0  HIT %:       -nan  MISS %:       -nan   MPKI: 0
STLB PREFETCH  ACCESS:          0  HIT:          0  MISS:          0  HIT %:       -nan  MISS %:       -nan   MPKI: 0
STLB WRITEBACK ACCESS:          0  HIT:          0  MISS:          0  HIT %:       -nan  MISS %:       -nan   MPKI: 0
L1D TOTAL     ACCESS:  103154840  HIT:   85819129  MISS:   17335711  HIT %:    83.1945  MISS %:    16.8055   MPKI: 86.6351
L1D LOAD      ACCESS:   51817874  HIT:   35319465  MISS:   16498409  HIT %:    68.1608  MISS %:    31.8392   MPKI: 82.4507
L1D RFO       ACCESS:   10882808  HIT:   10853069  MISS:      29739  HIT %:    99.7267  MISS %:   0.273266   MPKI: 0.14862
L1D PREFETCH  ACCESS:   40454158  HIT:   39646595  MISS:     807563  HIT %:    98.0038  MISS %:    1.99624   MPKI: 4.03579
L1D WRITEBACK ACCESS:          0  HIT:          0  MISS:          0  HIT %:       -nan  MISS %:       -nan   MPKI: 0
L1I TOTAL     ACCESS:   36975222  HIT:   36975222  MISS:          0  HIT %:        100  MISS %:          0   MPKI: 0
L1I LOAD      ACCESS:   36975222  HIT:   36975222  MISS:          0  HIT %:        100  MISS %:          0   MPKI: 0
L1I RFO       ACCESS:          0  HIT:          0  MISS:          0  HIT %:       -nan  MISS %:       -nan   MPKI: 0
L1I PREFETCH  ACCESS:          0  HIT:          0  MISS:          0  HIT %:       -nan  MISS %:       -nan   MPKI: 0
L1I WRITEBACK ACCESS:          0  HIT:          0  MISS:          0  HIT %:       -nan  MISS %:       -nan   MPKI: 0
L2C TOTAL     ACCESS:   43354419  HIT:   26556055  MISS:   16798364  HIT %:    61.2534  MISS %:    38.7466   MPKI: 83.9497
L2C LOAD      ACCESS:   16491046  HIT:    2363191  MISS:   14127855  HIT %:    14.3301  MISS %:    85.6699   MPKI: 70.6039
L2C RFO       ACCESS:      29739  HIT:        751  MISS:      28988  HIT %:     2.5253  MISS %:    97.4747   MPKI: 0.144867
L2C PREFETCH  ACCESS:   17291917  HIT:   15314000  MISS:    1977917  HIT %:    88.5616  MISS %:    11.4384   MPKI: 9.88463
L2C WRITEBACK ACCESS:    5544779  HIT:    5119695  MISS:     425084  HIT %:    92.3336  MISS %:    7.66638   MPKI: 2.12435
PSCL5 TOTAL     ACCESS:    3995514  HIT:    3995514  MISS:          0  HIT %:        100  MISS %:          0   MPKI: 0
PSCL5 LOAD      ACCESS:          0  HIT:          0  MISS:          0  HIT %:       -nan  MISS %:       -nan   MPKI: 0
PSCL5 RFO       ACCESS:          0  HIT:          0  MISS:          0  HIT %:       -nan  MISS %:       -nan   MPKI: 0
PSCL5 PREFETCH  ACCESS:          0  HIT:          0  MISS:          0  HIT %:       -nan  MISS %:       -nan   MPKI: 0
PSCL5 WRITEBACK ACCESS:          0  HIT:          0  MISS:          0  HIT %:       -nan  MISS %:       -nan   MPKI: 0
PSCL4 TOTAL     ACCESS:    3995514  HIT:    3995514  MISS:          0  HIT %:        100  MISS %:          0   MPKI: 0
PSCL4 LOAD      ACCESS:          0  HIT:          0  MISS:          0  HIT %:       -nan  MISS %:       -nan   MPKI: 0
PSCL4 RFO       ACCESS:          0  HIT:          0  MISS:          0  HIT %:       -nan  MISS %:       -nan   MPKI: 0
PSCL4 PREFETCH  ACCESS:          0  HIT:          0  MISS:          0  HIT %:       -nan  MISS %:       -nan   MPKI: 0
PSCL4 WRITEBACK ACCESS:          0  HIT:          0  MISS:          0  HIT %:       -nan  MISS %:       -nan   MPKI: 0
PSCL3 TOTAL     ACCESS:    3995514  HIT:    3995514  MISS:          0  HIT %:        100  MISS %:          0   MPKI: 0
PSCL3 LOAD      ACCESS:          0  HIT:          0  MISS:          0  HIT %:       -nan  MISS %:       -nan   MPKI: 0
PSCL3 RFO       ACCESS:          0  HIT:          0  MISS:          0  HIT %:       -nan  MISS %:       -nan   MPKI: 0
PSCL3 PREFETCH  ACCESS:          0  HIT:          0  MISS:          0  HIT %:       -nan  MISS %:       -nan   MPKI: 0
PSCL3 WRITEBACK ACCESS:          0  HIT:          0  MISS:          0  HIT %:       -nan  MISS %:       -nan   MPKI: 0
PSCL2 TOTAL     ACCESS:    3993921  HIT:    3993317  MISS:        604  HIT %:    99.9849  MISS %:   0.015123   MPKI: 0.00301849
PSCL2 LOAD      ACCESS:          0  HIT:          0  MISS:          0  HIT %:       -nan  MISS %:       -nan   MPKI: 0
PSCL2 RFO       ACCESS:          0  HIT:          0  MISS:          0  HIT %:       -nan  MISS %:       -nan   MPKI: 0
PSCL2 PREFETCH  ACCESS:          0  HIT:          0  MISS:          0  HIT %:       -nan  MISS %:       -nan   MPKI: 0
PSCL2 WRITEBACK ACCESS:          0  HIT:          0  MISS:          0  HIT %:       -nan  MISS %:       -nan   MPKI: 0
LLC TOTAL     ACCESS:   21622088  HIT:   11292960  MISS:   10329128  HIT %:    52.2288  MISS %:    47.7712   MPKI: 51.6198
LLC LOAD      ACCESS:   14074792  HIT:    5864552  MISS:    8210240  HIT %:    41.6671  MISS %:    58.3329   MPKI: 41.0306
LLC RFO       ACCESS:      28988  HIT:        276  MISS:      28712  HIT %:   0.952118  MISS %:    99.0479   MPKI: 0.143488
LLC PREFETCH  ACCESS:    2030978  HIT:     189301  MISS:    1841677  HIT %:    9.32068  MISS %:    90.6793   MPKI: 9.20377
LLC WRITEBACK ACCESS:    5248810  HIT:    5017701  MISS:     231109  HIT %:    95.5969  MISS %:    4.40307   MPKI: 1.15497

RAW hits: 1104546
Loads Generated: 56361430
Loads sent to L1D: 55256883
Stores Generated: 11247637
Stores sent to L1D: 11247634

CPU 1 cumulative IPC: 0.0978073 instructions: 200006316 cycles: 2044902060
ITLB TOTAL     ACCESS:   36649966  HIT:   36649966  MISS:          0  HIT %:        100  MISS %:          0   MPKI: 0
ITLB LOAD      ACCESS:          0  HIT:          0  MISS:          0  HIT %:       -nan  MISS %:       -nan   MPKI: 0
ITLB RFO       ACCESS:          0  HIT:          0  MISS:          0  HIT %:       -nan  MISS %:       -nan   MPKI: 0
ITLB PREFETCH  ACCESS:          0  HIT:          0  MISS:          0  HIT %:       -nan  MISS %:       -nan   MPKI: 0
ITLB WRITEBACK ACCESS:          0  HIT:          0  MISS:          0  HIT %:       -nan  MISS %:       -nan   MPKI: 0
DTLB TOTAL     ACCESS:   56020724  HIT:   47502646  MISS:    8518078  HIT %:    84.7948  MISS %:    15.2052   MPKI: 42.589
DTLB LOAD      ACCESS:          0  HIT:          0  MISS:          0  HIT %:       -nan  MISS %:       -nan   MPKI: 0
DTLB RFO       ACCESS:          0  HIT:          0  MISS:          0  HIT %:       -nan  MISS %:       -nan   MPKI: 0
DTLB PREFETCH  ACCESS:          0  HIT:          0  MISS:          0  HIT %:       -nan  MISS %:       -nan   MPKI: 0
DTLB WRITEBACK ACCESS:          0  HIT:          0  MISS:          0  HIT %:       -nan  MISS %:       -nan   MPKI: 0
STLB TOTAL     ACCESS:   22440472  HIT:   19083180  MISS:    3357292  HIT %:    85.0391  MISS %:    14.9609   MPKI: 16.7859
STLB LOAD      ACCESS:          0  HIT:          0  MISS:          0  HIT %:       -nan  MISS %:       -nan   MPKI: 0
STLB RFO       ACCESS:          0  HIT:          0  MISS:          0  HIT %:       -nan  MISS %:       -nan   MPKI: 0
STLB PREFETCH  ACCESS:          0  HIT:          0  MISS:          0  HIT %:       -nan  MISS %:       -nan   MPKI: 0
STLB WRITEBACK ACCESS:          0  HIT:          0  MISS:          0  HIT %:       -nan  MISS %:       -nan   MPKI: 0
L1D TOTAL     ACCESS:  103204036  HIT:   85877172  MISS:   17326864  HIT %:    83.2111  MISS %:    16.7889   MPKI: 86.6316
L1D LOAD      ACCESS:   51789167  HIT:   35299237  MISS:   16489930  HIT %:    68.1595  MISS %:    31.8405   MPKI: 82.447
L1D RFO       ACCESS:   10877799  HIT:   10848057  MISS:      29742  HIT %:    99.7266  MISS %:   0.273419   MPKI: 0.148705
L1D PREFETCH  ACCESS:   40537070  HIT:   39729878  MISS:     807192  HIT %:    98.0088  MISS %:    1.99124   MPKI: 4.03583
L1D WRITEBACK ACCESS:          0  HIT:          0  MISS:          0  HIT %:       -nan  MISS %:       -nan   MPKI: 0
L1I TOTAL     ACCESS:   36955981  HIT:   36955981  MISS:          0  HIT %:        100  MISS %:          0   MPKI: 0
L1I LOAD      ACCESS:   36955981  HIT:   36955981  MISS:          0  HIT %:        100  MISS %:          0   MPKI: 0
L1I RFO       ACCESS:          0  HIT:          0  MISS:          0  HIT %:       -nan  MISS %:       -nan   MPKI: 0
L1I PREFETCH  ACCESS:          0  HIT:          0  MISS:          0  HIT %:       -nan  MISS %:       -nan   MPKI: 0
L1I WRITEBACK ACCESS:          0  HIT:          0  MISS:          0  HIT %:       -nan  MISS %:       -nan   MPKI: 0
L2C TOTAL     ACCESS:   43284589  HIT:   26438474  MISS:   16846115  HIT %:    61.0806  MISS %:    38.9194   MPKI: 84.2279
L2C LOAD      ACCESS:   16482581  HIT:    2348954  MISS:   14133627  HIT %:    14.2511  MISS %:    85.7489   MPKI: 70.6659
L2C RFO       ACCESS:      29742  HIT:        689  MISS:      29053  HIT %:    2.31659  MISS %:    97.6834   MPKI: 0.14526
L2C PREFETCH  ACCESS:   17232947  HIT:   15254349  MISS:    1978598  HIT %:    88.5185  MISS %:    11.4815   MPKI: 9.89268
L2C WRITEBACK ACCESS:    5542443  HIT:    5106451  MISS:     435992  HIT %:    92.1336  MISS %:    7.86642   MPKI: 2.17989
PSCL5 TOTAL     ACCESS:    3995667  HIT:    3995667  MISS:          0  HIT %:        100  MISS %:          0   MPKI: 0
PSCL5 LOAD      ACCESS:          0  HIT:          0  MISS:          0  HIT %:       -nan  MISS %:       -nan   MPKI: 0
PSCL5 RFO       ACCESS:          0  HIT:          0  MISS:          0  HIT %:       -nan  MISS %:       -nan   MPKI: 0
PSCL5 PREFETCH  ACCESS:          0  HIT:          0  MISS:          0  HIT %:       -nan  MISS %:       -nan   MPKI: 0
PSCL5 WRITEBACK ACCESS:          0  HIT:          0  MISS:          0  HIT %:       -nan  MISS %:       -nan   MPKI: 0
PSCL4 TOTAL     ACCESS:    3995667  HIT:    3995667  MISS:          0  HIT %:        100  MISS %:          0   MPKI: 0
PSCL4 LOAD      ACCESS:          0  HIT:          0  MISS:          0  HIT %:       -nan  MISS %:       -nan   MPKI: 0
PSCL4 RFO       ACCESS:          0  HIT:          0  MISS:          0  HIT %:       -nan  MISS %:       -nan   MPKI: 0
PSCL4 PREFETCH  ACCESS:          0  HIT:          0  MISS:          0  HIT %:       -nan  MISS %:       -nan   MPKI: 0
PSCL4 WRITEBACK ACCESS:          0  HIT:          0  MISS:          0  HIT %:       -nan  MISS %:       -nan   MPKI: 0
PSCL3 TOTAL     ACCESS:    3995667  HIT:    3995667  MISS:          0  HIT %:        100  MISS %:          0   MPKI: 0
PSCL3 LOAD      ACCESS:          0  HIT:          0  MISS:          0  HIT %:       -nan  MISS %:       -nan   MPKI: 0
PSCL3 RFO       ACCESS:          0  HIT:          0  MISS:          0  HIT %:       -nan  MISS %:       -nan   MPKI: 0
PSCL3 PREFETCH  ACCESS:          0  HIT:          0  MISS:          0  HIT %:       -nan  MISS %:       -nan   MPKI: 0
PSCL3 WRITEBACK ACCESS:          0  HIT:          0  MISS:          0  HIT %:       -nan  MISS %:       -nan   MPKI: 0
PSCL2 TOTAL     ACCESS:    3994248  HIT:    3993644  MISS:        604  HIT %:    99.9849  MISS %:  0.0151217   MPKI: 0.0030199
PSCL2 LOAD      ACCESS:          0  HIT:          0  MISS:          0  HIT %:       -nan  MISS %:       -nan   MPKI: 0
PSCL2 RFO       ACCESS:          0  HIT:          0  MISS:          0  HIT %:       -nan  MISS %:       -nan   MPKI: 0
PSCL2 PREFETCH  ACCESS:          0  HIT:          0  MISS:          0  HIT %:       -nan  MISS %:       -nan   MPKI: 0
PSCL2 WRITEBACK ACCESS:          0  HIT:          0  MISS:          0  HIT %:       -nan  MISS %:       -nan   MPKI: 0
LLC TOTAL     ACCESS:   21653363  HIT:   11305806  MISS:   10347557  HIT %:    52.2127  MISS %:    47.7873   MPKI: 51.7362
LLC LOAD      ACCESS:   14080495  HIT:    5868686  MISS:    8211809  HIT %:    41.6795  MISS %:    58.3205   MPKI: 41.0577
LLC RFO       ACCESS:      29053  HIT:        271  MISS:      28782  HIT %:   0.932778  MISS %:    99.0672   MPKI: 0.143905
LLC PREFETCH  ACCESS:    2031728  HIT:     178440  MISS:    1853288  HIT %:    8.78267  MISS %:    91.2173   MPKI: 9.26615
LLC WRITEBACK ACCESS:    5243242  HIT:    5006413  MISS:     236829  HIT %:    95.4832  MISS %:    4.51684   MPKI: 1.18411

RAW hits: 1107414
Loads Generated: 56335906
Loads sent to L1D: 55228492
Stores Generated: 11243036
Stores sent to L1D: 11243036

CPU 2 cumulative IPC: 0.0978042 instructions: 200000001 cycles: 2044902060
ITLB TOTAL     ACCESS:   36647846  HIT:   36647846  MISS:          0  HIT %:        100  MISS %:          0   MPKI: 0
ITLB LOAD      ACCESS:          0  HIT:          0  MISS:          0  HIT %:       -nan  MISS %:       -nan   MPKI: 0
ITLB RFO       ACCESS:          0  HIT:          0  MISS:          0  HIT %:       -nan  MISS %:       -nan   MPKI: 0
ITLB PREFETCH  ACCESS:          0  HIT:          0  MISS:          0  HIT %:       -nan  MISS %:       -nan   MPKI: 0
ITLB WRITEBACK ACCESS:          0  HIT:          0  MISS:          0  HIT %:       -nan  MISS %:       -nan   MPKI: 0
DTLB TOTAL     ACCESS:   56018394  HIT:   47503474  MISS:    8514920  HIT %:    84.7998  MISS %:    15.2002   MPKI: 42.5746
DTLB LOAD      ACCESS:          0  HIT:          0  MISS:          0  HIT %:       -nan  MISS %:       -nan   MPKI: 0
DTLB RFO       ACCESS:          0  HIT:          0  MISS:          0  HIT %:       -nan  MISS %:       -nan   MPKI: 0
DTLB PREFETCH  ACCESS:          0  HIT:          0  MISS:          0  HIT %:       -nan  MISS %:       -nan   MPKI: 0
DTLB WRITEBACK ACCESS:          0  HIT:          0  MISS:          0  HIT %:       -nan  MISS %:       -nan   MPKI: 0
STLB TOTAL     ACCESS:   22337977  HIT:   18981287  MISS:    3356690  HIT %:    84.9732  MISS %:    15.0268   MPKI: 16.7834
STLB LOAD      ACCESS:          0  HIT:          0  MISS:          0  HIT %:       -nan  MISS %:       -nan   MPKI: 0
STLB RFO       ACCESS:          0  HIT:          0  MISS:          0  HIT %:       -nan  MISS %:       -nan   MPKI: 0
STLB PREFETCH  ACCESS:          0  HIT:          0  MISS:          0  HIT %:       -nan  MISS %:       -nan   MPKI: 0
STLB WRITEBACK ACCESS:          0  HIT:          0  MISS:          0  HIT %:       -nan  MISS %:       -nan   MPKI: 0
L1D TOTAL     ACCESS:  103089458  HIT:   85763736  MISS:   17325722  HIT %:    83.1935  MISS %:    16.8065   MPKI: 86.6286
L1D LOAD      ACCESS:   51786907  HIT:   35297461  MISS:   16489446  HIT %:     68.159  MISS %:     31.841   MPKI: 82.4472
L1D RFO       ACCESS:   10877746  HIT:   10847998  MISS:      29748  HIT %:    99.7265  MISS %:   0.273476   MPKI: 0.14874
L1D PREFETCH  ACCESS:   40424805  HIT:   39618277  MISS:     806528  HIT %:    98.0049  MISS %:    1.99513   MPKI: 4.03264
L1D WRITEBACK ACCESS:          0  HIT:          0  MISS:          0  HIT %:       -nan  MISS %:       -nan   MPKI: 0
L1I TOTAL     ACCESS:   36953944  HIT:   36953944  MISS:          0  HIT %:        100  MISS %:          0   MPKI: 0
L1I LOAD      ACCESS:   36953944  HIT:   36953944  MISS:          0  HIT %:        100  MISS %:          0   MPKI: 0
L1I RFO       ACCESS:          0  HIT:          0  MISS:          0  HIT %:       -nan  MISS %:       -nan   MPKI: 0
L1I PREFETCH  ACCESS:          0  HIT:          0  MISS:          0  HIT %:       -nan  MISS %:       -nan   MPKI: 0
L1I WRITEBACK ACCESS:          0  HIT:          0  MISS:          0  HIT %:       -nan  MISS %:       -nan   MPKI: 0
L2C TOTAL     ACCESS:   43422254  HIT:   26522639  MISS:   16899615  HIT %:    61.0808  MISS %:    38.9192   MPKI: 84.4981
L2C LOAD      ACCESS:   16482034  HIT:    2335683  MISS:   14146351  HIT %:    14.1711  MISS %:    85.8289   MPKI: 70.7318
L2C RFO       ACCESS:      29748  HIT:        698  MISS:      29050  HIT %:    2.34638  MISS %:    97.6536   MPKI: 0.14525
L2C PREFETCH  ACCESS:   17371307  HIT:   15399729  MISS:    1971578  HIT %:    88.6504  MISS %:    11.3496   MPKI: 9.85789
L2C WRITEBACK ACCESS:    5542470  HIT:    5079115  MISS:     463355  HIT %:    91.6399  MISS %:    8.36008   MPKI: 2.31677
PSCL5 TOTAL     ACCESS:    3995565  HIT:    3995565  MISS:          0  HIT %:        100  MISS %:          0   MPKI: 0
PSCL5 LOAD      ACCESS:          0  HIT:          0  MISS:          0  HIT %:       -nan  MISS %:       -nan   MPKI: 0
PSCL5 RFO       ACCESS:          0  HIT:          0  MISS:          0  HIT %:       -nan  MISS %:       -nan   MPKI: 0
PSCL5 PREFETCH  ACCESS:          0  HIT:          0  MISS:          0  HIT %:       -nan  MISS %:       -nan   MPKI: 0
PSCL5 WRITEBACK ACCESS:          0  HIT:          0  MISS:          0  HIT %:       -nan  MISS %:       -nan   MPKI: 0
PSCL4 TOTAL     ACCESS:    3995565  HIT:    3995565  MISS:          0  HIT %:        100  MISS %:          0   MPKI: 0
PSCL4 LOAD      ACCESS:          0  HIT:          0  MISS:          0  HIT %:       -nan  MISS %:       -nan   MPKI: 0
PSCL4 RFO       ACCESS:          0  HIT:          0  MISS:          0  HIT %:       -nan  MISS %:       -nan   MPKI: 0
PSCL4 PREFETCH  ACCESS:          0  HIT:          0  MISS:          0  HIT %:       -nan  MISS %:       -nan   MPKI: 0
PSCL4 WRITEBACK ACCESS:          0  HIT:          0  MISS:          0  HIT %:       -nan  MISS %:       -nan   MPKI: 0
PSCL3 TOTAL     ACCESS:    3995565  HIT:    3995565  MISS:          0  HIT %:        100  MISS %:          0   MPKI: 0
PSCL3 LOAD      ACCESS:          0  HIT:          0  MISS:          0  HIT %:       -nan  MISS %:       -nan   MPKI: 0
PSCL3 RFO       ACCESS:          0  HIT:          0  MISS:          0  HIT %:       -nan  MISS %:       -nan   MPKI: 0
PSCL3 PREFETCH  ACCESS:          0  HIT:          0  MISS:          0  HIT %:       -nan  MISS %:       -nan   MPKI: 0
PSCL3 WRITEBACK ACCESS:          0  HIT:          0  MISS:          0  HIT %:       -nan  MISS %:       -nan   MPKI: 0
PSCL2 TOTAL     ACCESS:    3994212  HIT:    3993607  MISS:        605  HIT %:    99.9849  MISS %:  0.0151469   MPKI: 0.003025
PSCL2 LOAD      ACCESS:          0  HIT:          0  MISS:          0  HIT %:       -nan  MISS %:       -nan   MPKI: 0
PSCL2 RFO       ACCESS:          0  HIT:          0  MISS:          0  HIT %:       -nan  MISS %:       -nan   MPKI: 0
PSCL2 PREFETCH  ACCESS:          0  HIT:          0  MISS:          0  HIT %:       -nan  MISS %:       -nan   MPKI: 0
PSCL2 WRITEBACK ACCESS:          0  HIT:          0  MISS:          0  HIT %:       -nan  MISS %:       -nan   MPKI: 0
LLC TOTAL     ACCESS:   21673072  HIT:   11319761  MISS:   10353311  HIT %:    52.2296  MISS %:    47.7704   MPKI: 51.7666
LLC LOAD      ACCESS:   14093543  HIT:    5891028  MISS:    8202515  HIT %:    41.7995  MISS %:    58.2005   MPKI: 41.0126
LLC RFO       ACCESS:      29050  HIT:        337  MISS:      28713  HIT %:    1.16007  MISS %:    98.8399   MPKI: 0.143565
LLC PREFETCH  ACCESS:    2024385  HIT:     166990  MISS:    1857395  HIT %:    8.24892  MISS %:    91.7511   MPKI: 9.28697
LLC WRITEBACK ACCESS:    5236813  HIT:    4987250  MISS:     249563  HIT %:    95.2344  MISS %:    4.76555   MPKI: 1.24781

RAW hits: 1109494
Loads Generated: 56334986
Loads sent to L1D: 55225490
Stores Generated: 11243308
Stores sent to L1D: 11243307

CPU 3 cumulative IPC: 0.0980826 instructions: 200569345 cycles: 2044902060
ITLB TOTAL     ACCESS:   36758501  HIT:   36758501  MISS:          0  HIT %:        100  MISS %:          0   MPKI: 0
ITLB LOAD      ACCESS:          0  HIT:          0  MISS:          0  HIT %:       -nan  MISS %:       -nan   MPKI: 0
ITLB RFO       ACCESS:          0  HIT:          0  MISS:          0  HIT %:       -nan  MISS %:       -nan   MPKI: 0
ITLB PREFETCH  ACCESS:          0  HIT:          0  MISS:          0  HIT %:       -nan  MISS %:       -nan   MPKI: 0
ITLB WRITEBACK ACCESS:          0  HIT:          0  MISS:          0  HIT %:       -nan  MISS %:       -nan   MPKI: 0
DTLB TOTAL     ACCESS:   56173199  HIT:   47630759  MISS:    8542440  HIT %:    84.7927  MISS %:    15.2073   MPKI: 42.591
DTLB LOAD      ACCESS:          0  HIT:          0  MISS:          0  HIT %:       -nan  MISS %:       -nan   MPKI: 0
DTLB RFO       ACCESS:          0  HIT:          0  MISS:          0  HIT %:       -nan  MISS %:       -nan   MPKI: 0
DTLB PREFETCH  ACCESS:          0  HIT:          0  MISS:          0  HIT %:       -nan  MISS %:       -nan   MPKI: 0
DTLB WRITEBACK ACCESS:          0  HIT:          0  MISS:          0  HIT %:       -nan  MISS %:       -nan   MPKI: 0
STLB TOTAL     ACCESS:   22621236  HIT:   19254038  MISS:    3367198  HIT %:    85.1149  MISS %:    14.8851   MPKI: 16.7882
STLB LOAD      ACCESS:          0  HIT:          0  MISS:          0  HIT %:       -nan  MISS %:       -nan   MPKI: 0
STLB RFO       ACCESS:          0  HIT:          0  MISS:          0  HIT %:       -nan  MISS %:       -nan   MPKI: 0
STLB PREFETCH  ACCESS:          0  HIT:          0  MISS:          0  HIT %:       -nan  MISS %:       -nan   MPKI: 0
STLB WRITEBACK ACCESS:          0  HIT:          0  MISS:          0  HIT %:       -nan  MISS %:       -nan   MPKI: 0
L1D TOTAL     ACCESS:  103419219  HIT:   86043929  MISS:   17375290  HIT %:    83.1992  MISS %:    16.8008   MPKI: 86.6298
L1D LOAD      ACCESS:   51931491  HIT:   35394514  MISS:   16536977  HIT %:    68.1562  MISS %:    31.8438   MPKI: 82.4502
L1D RFO       ACCESS:   10907451  HIT:   10877641  MISS:      29810  HIT %:    99.7267  MISS %:   0.273299   MPKI: 0.148627
L1D PREFETCH  ACCESS:   40580277  HIT:   39771774  MISS:     808503  HIT %:    98.0076  MISS %:    1.99235   MPKI: 4.03104
L1D WRITEBACK ACCESS:          0  HIT:          0  MISS:          0  HIT %:       -nan  MISS %:       -nan   MPKI: 0
L1I TOTAL     ACCESS:   37065609  HIT:   37065609  MISS:          0  HIT %:        100  MISS %:          0   MPKI: 0
L1I LOAD      ACCESS:   37065609  HIT:   37065609  MISS:          0  HIT %:        100  MISS %:          0   MPKI: 0
L1I RFO       ACCESS:          0  HIT:          0  MISS:          0  HIT %:       -nan  MISS %:       -nan   MPKI: 0
L1I PREFETCH  ACCESS:          0  HIT:          0  MISS:          0  HIT %:       -nan  MISS %:       -nan   MPKI: 0
L1I WRITEBACK ACCESS:          0  HIT:          0  MISS:          0  HIT %:       -nan  MISS %:       -nan   MPKI: 0
L2C TOTAL     ACCESS:   43690144  HIT:   26846344  MISS:   16843800  HIT %:    61.4471  MISS %:    38.5529   MPKI: 83.9799
L2C LOAD      ACCESS:   16529781  HIT:    2339486  MISS:   14190295  HIT %:    14.1532  MISS %:    85.8468   MPKI: 70.7501
L2C RFO       ACCESS:      29810  HIT:        748  MISS:      29062  HIT %:    2.50923  MISS %:    97.4908   MPKI: 0.144898
L2C PREFETCH  ACCESS:   17564811  HIT:   15589749  MISS:    1975062  HIT %:    88.7556  MISS %:    11.2444   MPKI: 9.84728
L2C WRITEBACK ACCESS:    5558093  HIT:    5135329  MISS:     422764  HIT %:    92.3937  MISS %:    7.60628   MPKI: 2.10782
PSCL5 TOTAL     ACCESS:    4006485  HIT:    4006485  MISS:          0  HIT %:        100  MISS %:          0   MPKI: 0
PSCL5 LOAD      ACCESS:          0  HIT:          0  MISS:          0  HIT %:       -nan  MISS %:       -nan   MPKI: 0
PSCL5 RFO       ACCESS:          0  HIT:          0  MISS:          0  HIT %:       -nan  MISS %:       -nan   MPKI: 0
PSCL5 PREFETCH  ACCESS:          0  HIT:          0  MISS:          0  HIT %:       -nan  MISS %:       -nan   MPKI: 0
PSCL5 WRITEBACK ACCESS:          0  HIT:          0  MISS:          0  HIT %:       -nan  MISS %:       -nan   MPKI: 0
PSCL4 TOTAL     ACCESS:    4006485  HIT:    4006485  MISS:          0  HIT %:        100  MISS %:          0   MPKI: 0
PSCL4 LOAD      ACCESS:          0  HIT:          0  MISS:          0  HIT %:       -nan  MISS %:       -nan   MPKI: 0
PSCL4 RFO       ACCESS:          0  HIT:          0  MISS:          0  HIT %:       -nan  MISS %:       -nan   MPKI: 0
PSCL4 PREFETCH  ACCESS:          0  HIT:          0  MISS:          0  HIT %:       -nan  MISS %:       -nan   MPKI: 0
PSCL4 WRITEBACK ACCESS:          0  HIT:          0  MISS:          0  HIT %:       -nan  MISS %:       -nan   MPKI: 0
PSCL3 TOTAL     ACCESS:    4006485  HIT:    4006485  MISS:          0  HIT %:        100  MISS %:          0   MPKI: 0
PSCL3 LOAD      ACCESS:          0  HIT:          0  MISS:          0  HIT %:       -nan  MISS %:       -nan   MPKI: 0
PSCL3 RFO       ACCESS:          0  HIT:          0  MISS:          0  HIT %:       -nan  MISS %:       -nan   MPKI: 0
PSCL3 PREFETCH  ACCESS:          0  HIT:          0  MISS:          0  HIT %:       -nan  MISS %:       -nan   MPKI: 0
PSCL3 WRITEBACK ACCESS:          0  HIT:          0  MISS:          0  HIT %:       -nan  MISS %:       -nan   MPKI: 0
PSCL2 TOTAL     ACCESS:    4005135  HIT:    4004531  MISS:        604  HIT %:    99.9849  MISS %:  0.0150806   MPKI: 0.00301143
PSCL2 LOAD      ACCESS:          0  HIT:          0  MISS:          0  HIT %:       -nan  MISS %:       -nan   MPKI: 0
PSCL2 RFO       ACCESS:          0  HIT:          0  MISS:          0  HIT %:       -nan  MISS %:       -nan   MPKI: 0
PSCL2 PREFETCH  ACCESS:          0  HIT:          0  MISS:          0  HIT %:       -nan  MISS %:       -nan   MPKI: 0
PSCL2 WRITEBACK ACCESS:          0  HIT:          0  MISS:          0  HIT %:       -nan  MISS %:       -nan   MPKI: 0
LLC TOTAL     ACCESS:   21670575  HIT:   11321733  MISS:   10348842  HIT %:    52.2447  MISS %:    47.7553   MPKI: 51.5973
LLC LOAD      ACCESS:   14137493  HIT:    5932949  MISS:    8204544  HIT %:    41.9661  MISS %:    58.0339   MPKI: 40.9063
LLC RFO       ACCESS:      29062  HIT:        266  MISS:      28796  HIT %:   0.915285  MISS %:    99.0847   MPKI: 0.143571
LLC PREFETCH  ACCESS:    2027861  HIT:     181773  MISS:    1846088  HIT %:    8.96378  MISS %:    91.0362   MPKI: 9.20424
LLC WRITEBACK ACCESS:    5249542  HIT:    4998779  MISS:     250763  HIT %:    95.2231  MISS %:    4.77685   MPKI: 1.25026

RAW hits: 1115028
Loads Generated: 56493879
Loads sent to L1D: 55378849
Stores Generated: 11274602
Stores sent to L1D: 11274607

Region of Interest Statistics

CPU 0 cumulative IPC: 0.0978502 instructions: 200000001 cycles: 2043940087
ITLB TOTAL     ACCESS:   36649094  HIT:   36649094  MISS:          0  HIT %:        100  MISS %:          0   MPKI: 0
ITLB LOAD TRANSLATION ACCESS:   36649094  HIT:   36649094  MISS:          0  HIT %:        100  MISS %:          0   MPKI: 0
ITLB PREFETCH  REQUESTED:          0  ISSUED:          0  USEFUL:          0  USELESS:          0
ITLB USEFUL LOAD PREFETCHES:          0 PREFETCH ISSUED TO LOWER LEVEL:          0  ACCURACY: -nan
ITLB TIMELY PREFETCHES:          0 LATE PREFETCHES: 0 DROPPED PREFETCHES: 0
ITLB PREFETCHES SAME FILL-ORIGIN LEVEL: 0 DIFFERENT FILL-ORIGIN LEVEL: 0
ITLB AVERAGE MISS LATENCY: -nan cycles
ITLB RQ	ACCESS:   36975222	FORWARD:          0	MERGED:     306019	TO_CACHE:   36669203

DTLB TOTAL     ACCESS:   56023282  HIT:   47504732  MISS:    8518550  HIT %:    84.7946  MISS %:    15.2054   MPKI: 42.5927
DTLB LOAD TRANSLATION ACCESS:   56023282  HIT:   47504732  MISS:    8518550  HIT %:    84.7946  MISS %:    15.2054   MPKI: 42.5927
DTLB PREFETCH  REQUESTED:          0  ISSUED:          0  USEFUL:          0  USELESS:          0
DTLB USEFUL LOAD PREFETCHES:          0 PREFETCH ISSUED TO LOWER LEVEL:          0  ACCURACY: -nan
DTLB TIMELY PREFETCHES:          0 LATE PREFETCHES: 0 DROPPED PREFETCHES: 0
DTLB PREFETCHES SAME FILL-ORIGIN LEVEL: 0 DIFFERENT FILL-ORIGIN LEVEL: 0
DTLB AVERAGE MISS LATENCY: 19.157 cycles
DTLB RQ	ACCESS:   62890799	FORWARD:          0	MERGED:    6216224	TO_CACHE:   56674575

STLB TOTAL     ACCESS:   22474101  HIT:   19116575  MISS:    3357526  HIT %:    85.0605  MISS %:    14.9395   MPKI: 16.7876
STLB LOAD TRANSLATION ACCESS:    8518550  HIT:    5245407  MISS:    3273143  HIT %:    61.5763  MISS %:    38.4237   MPKI: 16.3657
STLB TRANSLATION FROM L1D PREFETCHER ACCESS:   13955551  HIT:   13871168  MISS:      84383  HIT %:    99.3953  MISS %:   0.604655   MPKI: 0.421915
STLB PREFETCH  REQUESTED:          0  ISSUED:          0  USEFUL:      83167  USELESS:       1227
STLB USEFUL LOAD PREFETCHES:      83167 PREFETCH ISSUED TO LOWER LEVEL:          0  ACCURACY: inf
STLB TIMELY PREFETCHES:      83167 LATE PREFETCHES: 3281 DROPPED PREFETCHES: 635139
STLB PREFETCHES SAME FILL-ORIGIN LEVEL: 0 DIFFERENT FILL-ORIGIN LEVEL: 0
STLB AVERAGE MISS LATENCY: 26.0547 cycles
STLB RQ	ACCESS:   68655832	FORWARD:          0	MERGED:   45489062	TO_CACHE:   23166770

STLB Hit, L1D data hit: 0
STLB Hit, L2C data hit: 0
STLB Hit, LLC data hit: 0
STLB Hit, LLC data miss: 0
STLB STLB hints to L2: 0
L1D TOTAL     ACCESS:  103107856  HIT:   85781169  MISS:   17326687  HIT %:    83.1956  MISS %:    16.8044   MPKI: 86.6334
L1D LOAD      ACCESS:   51792099  HIT:   35302220  MISS:   16489879  HIT %:    68.1614  MISS %:    31.8386   MPKI: 82.4494
L1D RFO       ACCESS:   10877753  HIT:   10848019  MISS:      29734  HIT %:    99.7267  MISS %:   0.273347   MPKI: 0.14867
L1D PREFETCH  ACCESS:   40438004  HIT:   39630930  MISS:     807074  HIT %:    98.0042  MISS %:    1.99583   MPKI: 4.03537
L1D PREFETCH  REQUESTED:  135608667  ISSUED:  135486041  USEFUL:     716859  USELESS:      90713
L1D USEFUL LOAD PREFETCHES:     716859 PREFETCH ISSUED TO LOWER LEVEL:   17929709  ACCURACY: 3.99816
L1D TIMELY PREFETCHES:     716859 LATE PREFETCHES: 7361 DROPPED PREFETCHES: 2283351
L1D PREFETCHES SAME FILL-ORIGIN LEVEL: 814930 DIFFERENT FILL-ORIGIN LEVEL: 17114779
L1D AVERAGE MISS LATENCY: 220.07 cycles
L1D RQ	ACCESS:   55256883	FORWARD:          0	MERGED:    3288700	TO_CACHE:   51965135
L1D WQ	ACCESS:   11247634	FORWARD:       3048	MERGED:     321970	TO_CACHE:   10925664
L1D PQ	ACCESS:   75355510	FORWARD:          0	MERGED:   15224979	TO_CACHE:   60130531

L1D UNIQUE REGIONS ACCESSED: 0
L1D REGIONS CONFLICTS: 0
L1D Cross Page Prefetch Requests: 6552975
L1D Same Page Prefetch Requests: 83535331
L1D ROI Sum of L1D PQ occupancy: 805217207
L1D PREFETCHES PUSHED FROM L2C: 0
L1I TOTAL     ACCESS:   36955036  HIT:   36955036  MISS:          0  HIT %:        100  MISS %:          0   MPKI: 0
L1I LOAD      ACCESS:   36955036  HIT:   36955036  MISS:          0  HIT %:        100  MISS %:          0   MPKI: 0
L1I PREFETCH  REQUESTED:          0  ISSUED:          0  USEFUL:          0  USELESS:          0
L1I USEFUL LOAD PREFETCHES:          0 PREFETCH ISSUED TO LOWER LEVEL:          0  ACCURACY: -nan
L1I TIMELY PREFETCHES:          0 LATE PREFETCHES: 0 DROPPED PREFETCHES: 0
L1I PREFETCHES SAME FILL-ORIGIN LEVEL: 0 DIFFERENT FILL-ORIGIN LEVEL: 0
L1I AVERAGE MISS LATENCY: -nan cycles
L1I RQ	ACCESS:   48268288	FORWARD:          0	MERGED:   11293066	TO_CACHE:   36975222

BTB TOTAL     ACCESS:   35193685  HIT:   35193677  MISS:          8  HIT %:        100  MISS %: 2.27314e-05   MPKI: 4e-05
BTB BRANCH_DIRECT_JUMP	ACCESS:     253255  HIT:     253253  MISS:          2
BTB BRANCH_INDIRECT	ACCESS:          0  HIT:          0  MISS:          0
BTB BRANCH_CONDITIONAL	ACCESS:   34940402  HIT:   34940398  MISS:          4
BTB BRANCH_DIRECT_CALL	ACCESS:         14  HIT:         13  MISS:          1
BTB BRANCH_INDIRECT_CALL	ACCESS:          0  HIT:          0  MISS:          0
BTB BRANCH_RETURN	ACCESS:         14  HIT:         13  MISS:          1
BTB BRANCH_OTHER ACCESS:          0  HIT:          0  MISS:          0

L2C TOTAL     ACCESS:   43332921  HIT:   26542436  MISS:   16790485  HIT %:    61.2524  MISS %:    38.7476   MPKI: 83.9524
L2C LOAD      ACCESS:   16482517  HIT:    2361663  MISS:   14120854  HIT %:    14.3283  MISS %:    85.6717   MPKI: 70.6043
L2C DATA LOAD MPKI: 70.6043
L2C INSTRUCTION LOAD MPKI: 0
L2C RFO       ACCESS:      29734  HIT:        750  MISS:      28984  HIT %:    2.52236  MISS %:    97.4776   MPKI: 0.14492
L2C PREFETCH  ACCESS:   17283284  HIT:   15305980  MISS:    1977304  HIT %:    88.5594  MISS %:    11.4406   MPKI: 9.88652
L2C DATA PREFETCH MPKI: 9.88652
L2C INSTRUCTION PREFETCH MPKI: 0
L2C WRITEBACK ACCESS:    5542197  HIT:    5117288  MISS:     424909  HIT %:    92.3332  MISS %:     7.6668   MPKI: 2.12454
L2C LOAD TRANSLATION ACCESS:    3271597  HIT:    3045267  MISS:     226330  HIT %:     93.082  MISS %:    6.91803   MPKI: 1.13165
L2C TRANSLATION FROM L1D PREFETCHER ACCESS:     723592  HIT:     711488  MISS:      12104  HIT %:    98.3272  MISS %:    1.67277   MPKI: 0.06052
L2C PREFETCH  REQUESTED:          0  ISSUED:          0  USEFUL:     280135  USELESS:    1710681
L2C USEFUL LOAD PREFETCHES:     280135 PREFETCH ISSUED TO LOWER LEVEL:    2030976  ACCURACY: 13.7931
L2C TIMELY PREFETCHES:     280135 LATE PREFETCHES: 53061 DROPPED PREFETCHES: 0
L2C PREFETCHES SAME FILL-ORIGIN LEVEL: 1667906 DIFFERENT FILL-ORIGIN LEVEL: 0
L2C AVERAGE MISS LATENCY: 259.782 cycles
L2C RQ	ACCESS:   20517725	FORWARD:          0	MERGED:          0	TO_CACHE:   20517724
L2C WQ	ACCESS:    5544779	FORWARD:          1	MERGED:          0	TO_CACHE:    5544779
L2C PQ	ACCESS:   17928045	FORWARD:          0	MERGED:      23106	TO_CACHE:   17904939

L2C Instructions Evicting Data 0
L2C Translations Evicting Data 229930
L2C Data Evicting Data 15910950
L2C Instructions Evicting Instructions 0
L2C Translations Evicting Instructions 0
L2C Data Evicting Instructions 0
L2C Instructions Evicting Translations 0
L2C Translations Evicting Translations 8590
L2C Data Evicting Translations 223810
L2C Dense regions hint from L2: 0
PSCL5 TOTAL     ACCESS:    3993765  HIT:    3993765  MISS:          0  HIT %:        100  MISS %:          0   MPKI: 0
PSCL5 LOAD TRANSLATION ACCESS:    3271038  HIT:    3271038  MISS:          0  HIT %:        100  MISS %:          0   MPKI: 0
PSCL5 TRANSLATION FROM L1D PREFETCHER ACCESS:     722727  HIT:     722727  MISS:          0  HIT %:        100  MISS %:          0   MPKI: 0
PSCL5 PREFETCH  REQUESTED:          0  ISSUED:          0  USEFUL:          0  USELESS:          0
PSCL5 USEFUL LOAD PREFETCHES:          0 PREFETCH ISSUED TO LOWER LEVEL:          0  ACCURACY: -nan
PSCL5 TIMELY PREFETCHES:          0 LATE PREFETCHES: 0 DROPPED PREFETCHES: 0
PSCL5 PREFETCHES SAME FILL-ORIGIN LEVEL: 0 DIFFERENT FILL-ORIGIN LEVEL: 0

PSCL4 TOTAL     ACCESS:    3993765  HIT:    3993765  MISS:          0  HIT %:        100  MISS %:          0   MPKI: 0
PSCL4 LOAD TRANSLATION ACCESS:    3271038  HIT:    3271038  MISS:          0  HIT %:        100  MISS %:          0   MPKI: 0
PSCL4 TRANSLATION FROM L1D PREFETCHER ACCESS:     722727  HIT:     722727  MISS:          0  HIT %:        100  MISS %:          0   MPKI: 0
PSCL4 PREFETCH  REQUESTED:          0  ISSUED:          0  USEFUL:          0  USELESS:          0
PSCL4 USEFUL LOAD PREFETCHES:          0 PREFETCH ISSUED TO LOWER LEVEL:          0  ACCURACY: -nan
PSCL4 TIMELY PREFETCHES:          0 LATE PREFETCHES: 0 DROPPED PREFETCHES: 0
PSCL4 PREFETCHES SAME FILL-ORIGIN LEVEL: 0 DIFFERENT FILL-ORIGIN LEVEL: 0

PSCL3 TOTAL     ACCESS:    3993765  HIT:    3993765  MISS:          0  HIT %:        100  MISS %:          0   MPKI: 0
PSCL3 LOAD TRANSLATION ACCESS:    3271038  HIT:    3271038  MISS:          0  HIT %:        100  MISS %:          0   MPKI: 0
PSCL3 TRANSLATION FROM L1D PREFETCHER ACCESS:     722727  HIT:     722727  MISS:          0  HIT %:        100  MISS %:          0   MPKI: 0
PSCL3 PREFETCH  REQUESTED:          0  ISSUED:          0  USEFUL:          0  USELESS:          0
PSCL3 USEFUL LOAD PREFETCHES:          0 PREFETCH ISSUED TO LOWER LEVEL:          0  ACCURACY: -nan
PSCL3 TIMELY PREFETCHES:          0 LATE PREFETCHES: 0 DROPPED PREFETCHES: 0
PSCL3 PREFETCHES SAME FILL-ORIGIN LEVEL: 0 DIFFERENT FILL-ORIGIN LEVEL: 0

PSCL2 TOTAL     ACCESS:    3992172  HIT:    3991568  MISS:        604  HIT %:    99.9849  MISS %:  0.0151296   MPKI: 0.00302
PSCL2 LOAD TRANSLATION ACCESS:    3271046  HIT:    3270442  MISS:        604  HIT %:    99.9815  MISS %:   0.018465   MPKI: 0.00302
PSCL2 TRANSLATION FROM L1D PREFETCHER ACCESS:     721126  HIT:     721126  MISS:          0  HIT %:        100  MISS %:          0   MPKI: 0
PSCL2 PREFETCH  REQUESTED:          0  ISSUED:          0  USEFUL:          0  USELESS:          0
PSCL2 USEFUL LOAD PREFETCHES:          0 PREFETCH ISSUED TO LOWER LEVEL:          0  ACCURACY: -nan
PSCL2 TIMELY PREFETCHES:          0 LATE PREFETCHES: 0 DROPPED PREFETCHES: 0
PSCL2 PREFETCHES SAME FILL-ORIGIN LEVEL: 0 DIFFERENT FILL-ORIGIN LEVEL: 0

LLC TOTAL     ACCESS:   21611977  HIT:   11287384  MISS:   10324593  HIT %:    52.2274  MISS %:    47.7726   MPKI: 51.623
LLC LOAD      ACCESS:   14067791  HIT:    5861346  MISS:    8206445  HIT %:     41.665  MISS %:     58.335   MPKI: 41.0322
LLC RFO       ACCESS:      28984  HIT:        276  MISS:      28708  HIT %:    0.95225  MISS %:    99.0478   MPKI: 0.14354
LLC PREFETCH  ACCESS:    2030365  HIT:     189300  MISS:    1841065  HIT %:    9.32345  MISS %:    90.6766   MPKI: 9.20532
LLC WRITEBACK ACCESS:    5246403  HIT:    5015398  MISS:     231005  HIT %:    95.5969  MISS %:    4.40311   MPKI: 1.15502
LLC LOAD TRANSLATION ACCESS:     226330  HIT:     211438  MISS:      14892  HIT %:    93.4202  MISS %:    6.57977   MPKI: 0.07446
LLC TRANSLATION FROM L1D PREFETCHER ACCESS:      12104  HIT:       9626  MISS:       2478  HIT %:    79.5274  MISS %:    20.4726   MPKI: 0.01239
LLC PREFETCH  REQUESTED:          0  ISSUED:          0  USEFUL:     244591  USELESS:    7169655
LLC USEFUL LOAD PREFETCHES:     244591 PREFETCH ISSUED TO LOWER LEVEL:    7726332  ACCURACY: 3.16568
LLC TIMELY PREFETCHES:     244591 LATE PREFETCHES: 0 DROPPED PREFETCHES: 0
LLC PREFETCHES SAME FILL-ORIGIN LEVEL: 0 DIFFERENT FILL-ORIGIN LEVEL: 0
LLC AVERAGE MISS LATENCY: 1505.39 cycles
LLC RQ	ACCESS:   57525749	FORWARD:          0	MERGED:          0	TO_CACHE:   57525740
LLC WQ	ACCESS:   20978407	FORWARD:          9	MERGED:          0	TO_CACHE:   20978407
LLC PQ	ACCESS:    8114949	FORWARD:          0	MERGED:          0	TO_CACHE:    8114949

LLC Dense regions hint to LLC: 0

RAW hits: 1104229
Loads Generated: 56333856
Loads sent to L1D: 55229626
Stores Generated: 11242486
Stores sent to L1D: 11242486
Major fault: 0 Minor fault: 31043
Allocated PAGES: 124153

CPU 1 cumulative IPC: 0.0978073 instructions: 200000001 cycles: 2044838183
ITLB TOTAL     ACCESS:   36648702  HIT:   36648702  MISS:          0  HIT %:        100  MISS %:          0   MPKI: 0
ITLB LOAD TRANSLATION ACCESS:   36648702  HIT:   36648702  MISS:          0  HIT %:        100  MISS %:          0   MPKI: 0
ITLB PREFETCH  REQUESTED:          0  ISSUED:          0  USEFUL:          0  USELESS:          0
ITLB USEFUL LOAD PREFETCHES:          0 PREFETCH ISSUED TO LOWER LEVEL:          0  ACCURACY: -nan
ITLB TIMELY PREFETCHES:          0 LATE PREFETCHES: 0 DROPPED PREFETCHES: 0
ITLB PREFETCHES SAME FILL-ORIGIN LEVEL: 0 DIFFERENT FILL-ORIGIN LEVEL: 0
ITLB AVERAGE MISS LATENCY: -nan cycles
ITLB RQ	ACCESS:   36955981	FORWARD:          0	MERGED:     306015	TO_CACHE:   36649966

DTLB TOTAL     ACCESS:   56019019  HIT:   47501414  MISS:    8517605  HIT %:    84.7952  MISS %:    15.2048   MPKI: 42.588
DTLB LOAD TRANSLATION ACCESS:   56019019  HIT:   47501414  MISS:    8517605  HIT %:    84.7952  MISS %:    15.2048   MPKI: 42.588
DTLB PREFETCH  REQUESTED:          0  ISSUED:          0  USEFUL:          0  USELESS:          0
DTLB USEFUL LOAD PREFETCHES:          0 PREFETCH ISSUED TO LOWER LEVEL:          0  ACCURACY: -nan
DTLB TIMELY PREFETCHES:          0 LATE PREFETCHES: 0 DROPPED PREFETCHES: 0
DTLB PREFETCHES SAME FILL-ORIGIN LEVEL: 0 DIFFERENT FILL-ORIGIN LEVEL: 0
DTLB AVERAGE MISS LATENCY: 19.2156 cycles
DTLB RQ	ACCESS:   62857141	FORWARD:          0	MERGED:    6213540	TO_CACHE:   56643601

STLB TOTAL     ACCESS:   22439583  HIT:   19082386  MISS:    3357197  HIT %:     85.039  MISS %:     14.961   MPKI: 16.786
STLB LOAD TRANSLATION ACCESS:    8517605  HIT:    5244535  MISS:    3273070  HIT %:    61.5729  MISS %:    38.4271   MPKI: 16.3653
STLB TRANSLATION FROM L1D PREFETCHER ACCESS:   13921978  HIT:   13837851  MISS:      84127  HIT %:    99.3957  MISS %:   0.604275   MPKI: 0.420635
STLB PREFETCH  REQUESTED:          0  ISSUED:          0  USEFUL:      82935  USELESS:       1192
STLB USEFUL LOAD PREFETCHES:      82935 PREFETCH ISSUED TO LOWER LEVEL:          0  ACCURACY: inf
STLB TIMELY PREFETCHES:      82935 LATE PREFETCHES: 3300 DROPPED PREFETCHES: 637205
STLB PREFETCHES SAME FILL-ORIGIN LEVEL: 0 DIFFERENT FILL-ORIGIN LEVEL: 0
STLB AVERAGE MISS LATENCY: 26.2422 cycles
STLB RQ	ACCESS:   68666283	FORWARD:          0	MERGED:   45544767	TO_CACHE:   23121516

STLB Hit, L1D data hit: 0
STLB Hit, L2C data hit: 0
STLB Hit, LLC data hit: 0
STLB Hit, LLC data miss: 0
STLB STLB hints to L2: 0
L1D TOTAL     ACCESS:  103201491  HIT:   85875180  MISS:   17326311  HIT %:    83.2112  MISS %:    16.7888   MPKI: 86.6316
L1D LOAD      ACCESS:   51787595  HIT:   35298190  MISS:   16489405  HIT %:    68.1595  MISS %:    31.8405   MPKI: 82.447
L1D RFO       ACCESS:   10877493  HIT:   10847751  MISS:      29742  HIT %:    99.7266  MISS %:   0.273427   MPKI: 0.14871
L1D PREFETCH  ACCESS:   40536403  HIT:   39729239  MISS:     807164  HIT %:    98.0088  MISS %:    1.99121   MPKI: 4.03582
L1D PREFETCH  REQUESTED:  135671947  ISSUED:  135522145  USEFUL:     716879  USELESS:      90317
L1D USEFUL LOAD PREFETCHES:     716879 PREFETCH ISSUED TO LOWER LEVEL:   17865479  ACCURACY: 4.01265
L1D TIMELY PREFETCHES:     716879 LATE PREFETCHES: 7348 DROPPED PREFETCHES: 2283308
L1D PREFETCHES SAME FILL-ORIGIN LEVEL: 814540 DIFFERENT FILL-ORIGIN LEVEL: 17050939
L1D AVERAGE MISS LATENCY: 220.161 cycles
L1D RQ	ACCESS:   55228492	FORWARD:          0	MERGED:    3288960	TO_CACHE:   51936457
L1D WQ	ACCESS:   11243036	FORWARD:       3075	MERGED:     322352	TO_CACHE:   10920684
L1D PQ	ACCESS:   75373940	FORWARD:          0	MERGED:   15225735	TO_CACHE:   60148205

L1D UNIQUE REGIONS ACCESSED: 0
L1D REGIONS CONFLICTS: 0
L1D Cross Page Prefetch Requests: 6560218
L1D Same Page Prefetch Requests: 83486755
L1D ROI Sum of L1D PQ occupancy: 806813428
L1D PREFETCHES PUSHED FROM L2C: 0
L1I TOTAL     ACCESS:   36954714  HIT:   36954714  MISS:          0  HIT %:        100  MISS %:          0   MPKI: 0
L1I LOAD      ACCESS:   36954714  HIT:   36954714  MISS:          0  HIT %:        100  MISS %:          0   MPKI: 0
L1I PREFETCH  REQUESTED:          0  ISSUED:          0  USEFUL:          0  USELESS:          0
L1I USEFUL LOAD PREFETCHES:          0 PREFETCH ISSUED TO LOWER LEVEL:          0  ACCURACY: -nan
L1I TIMELY PREFETCHES:          0 LATE PREFETCHES: 0 DROPPED PREFETCHES: 0
L1I PREFETCHES SAME FILL-ORIGIN LEVEL: 0 DIFFERENT FILL-ORIGIN LEVEL: 0
L1I AVERAGE MISS LATENCY: -nan cycles
L1I RQ	ACCESS:   48244468	FORWARD:          0	MERGED:   11288487	TO_CACHE:   36955981

BTB TOTAL     ACCESS:   35193344  HIT:   35193336  MISS:          8  HIT %:        100  MISS %: 2.27316e-05   MPKI: 4e-05
BTB BRANCH_DIRECT_JUMP	ACCESS:     253302  HIT:     253300  MISS:          2
BTB BRANCH_INDIRECT	ACCESS:          0  HIT:          0  MISS:          0
BTB BRANCH_CONDITIONAL	ACCESS:   34940014  HIT:   34940010  MISS:          4
BTB BRANCH_DIRECT_CALL	ACCESS:         14  HIT:         13  MISS:          1
BTB BRANCH_INDIRECT_CALL	ACCESS:          0  HIT:          0  MISS:          0
BTB BRANCH_RETURN	ACCESS:         14  HIT:         13  MISS:          1
BTB BRANCH_OTHER ACCESS:          0  HIT:          0  MISS:          0

L2C TOTAL     ACCESS:   43283273  HIT:   26437635  MISS:   16845638  HIT %:    61.0805  MISS %:    38.9195   MPKI: 84.2282
L2C LOAD      ACCESS:   16482056  HIT:    2348850  MISS:   14133206  HIT %:     14.251  MISS %:     85.749   MPKI: 70.666
L2C DATA LOAD MPKI: 70.666
L2C INSTRUCTION LOAD MPKI: 0
L2C RFO       ACCESS:      29742  HIT:        689  MISS:      29053  HIT %:    2.31659  MISS %:    97.6834   MPKI: 0.145265
L2C PREFETCH  ACCESS:   17232418  HIT:   15253854  MISS:    1978564  HIT %:    88.5184  MISS %:    11.4816   MPKI: 9.89282
L2C DATA PREFETCH MPKI: 9.89282
L2C INSTRUCTION PREFETCH MPKI: 0
L2C WRITEBACK ACCESS:    5542276  HIT:    5106299  MISS:     435977  HIT %:    92.1336  MISS %:    7.86639   MPKI: 2.17988
L2C LOAD TRANSLATION ACCESS:    3271497  HIT:    3014863  MISS:     256634  HIT %:    92.1555  MISS %:    7.84454   MPKI: 1.28317
L2C TRANSLATION FROM L1D PREFETCHER ACCESS:     725284  HIT:     713080  MISS:      12204  HIT %:    98.3173  MISS %:    1.68265   MPKI: 0.06102
L2C PREFETCH  REQUESTED:          0  ISSUED:          0  USEFUL:     278379  USELESS:    1713072
L2C USEFUL LOAD PREFETCHES:     278379 PREFETCH ISSUED TO LOWER LEVEL:    2031727  ACCURACY: 13.7016
L2C TIMELY PREFETCHES:     278379 LATE PREFETCHES: 53130 DROPPED PREFETCHES: 0
L2C PREFETCHES SAME FILL-ORIGIN LEVEL: 1667876 DIFFERENT FILL-ORIGIN LEVEL: 0
L2C AVERAGE MISS LATENCY: 259.424 cycles
L2C RQ	ACCESS:   20509202	FORWARD:          0	MERGED:          0	TO_CACHE:   20509201
L2C WQ	ACCESS:    5542443	FORWARD:          1	MERGED:          0	TO_CACHE:    5542443
L2C PQ	ACCESS:   17863542	FORWARD:          0	MERGED:      23158	TO_CACHE:   17840384

L2C Instructions Evicting Data 0
L2C Translations Evicting Data 258034
L2C Data Evicting Data 15893429
L2C Instructions Evicting Instructions 0
L2C Translations Evicting Instructions 0
L2C Data Evicting Instructions 0
L2C Instructions Evicting Translations 0
L2C Translations Evicting Translations 10811
L2C Data Evicting Translations 247849
L2C Dense regions hint from L2: 0
PSCL5 TOTAL     ACCESS:    3995572  HIT:    3995572  MISS:          0  HIT %:        100  MISS %:          0   MPKI: 0
PSCL5 LOAD TRANSLATION ACCESS:    3270940  HIT:    3270940  MISS:          0  HIT %:        100  MISS %:          0   MPKI: 0
PSCL5 TRANSLATION FROM L1D PREFETCHER ACCESS:     724632  HIT:     724632  MISS:          0  HIT %:        100  MISS %:          0   MPKI: 0
PSCL5 PREFETCH  REQUESTED:          0  ISSUED:          0  USEFUL:          0  USELESS:          0
PSCL5 USEFUL LOAD PREFETCHES:          0 PREFETCH ISSUED TO LOWER LEVEL:          0  ACCURACY: -nan
PSCL5 TIMELY PREFETCHES:          0 LATE PREFETCHES: 0 DROPPED PREFETCHES: 0
PSCL5 PREFETCHES SAME FILL-ORIGIN LEVEL: 0 DIFFERENT FILL-ORIGIN LEVEL: 0

PSCL4 TOTAL     ACCESS:    3995572  HIT:    3995572  MISS:          0  HIT %:        100  MISS %:          0   MPKI: 0
PSCL4 LOAD TRANSLATION ACCESS:    3270940  HIT:    3270940  MISS:          0  HIT %:        100  MISS %:          0   MPKI: 0
PSCL4 TRANSLATION FROM L1D PREFETCHER ACCESS:     724632  HIT:     724632  MISS:          0  HIT %:        100  MISS %:          0   MPKI: 0
PSCL4 PREFETCH  REQUESTED:          0  ISSUED:          0  USEFUL:          0  USELESS:          0
PSCL4 USEFUL LOAD PREFETCHES:          0 PREFETCH ISSUED TO LOWER LEVEL:          0  ACCURACY: -nan
PSCL4 TIMELY PREFETCHES:          0 LATE PREFETCHES: 0 DROPPED PREFETCHES: 0
PSCL4 PREFETCHES SAME FILL-ORIGIN LEVEL: 0 DIFFERENT FILL-ORIGIN LEVEL: 0

PSCL3 TOTAL     ACCESS:    3995572  HIT:    3995572  MISS:          0  HIT %:        100  MISS %:          0   MPKI: 0
PSCL3 LOAD TRANSLATION ACCESS:    3270940  HIT:    3270940  MISS:          0  HIT %:        100  MISS %:          0   MPKI: 0
PSCL3 TRANSLATION FROM L1D PREFETCHER ACCESS:     724632  HIT:     724632  MISS:          0  HIT %:        100  MISS %:          0   MPKI: 0
PSCL3 PREFETCH  REQUESTED:          0  ISSUED:          0  USEFUL:          0  USELESS:          0
PSCL3 USEFUL LOAD PREFETCHES:          0 PREFETCH ISSUED TO LOWER LEVEL:          0  ACCURACY: -nan
PSCL3 TIMELY PREFETCHES:          0 LATE PREFETCHES: 0 DROPPED PREFETCHES: 0
PSCL3 PREFETCHES SAME FILL-ORIGIN LEVEL: 0 DIFFERENT FILL-ORIGIN LEVEL: 0

PSCL2 TOTAL     ACCESS:    3994153  HIT:    3993549  MISS:        604  HIT %:    99.9849  MISS %:  0.0151221   MPKI: 0.00302
PSCL2 LOAD TRANSLATION ACCESS:    3270950  HIT:    3270346  MISS:        604  HIT %:    99.9815  MISS %:  0.0184656   MPKI: 0.00302
PSCL2 TRANSLATION FROM L1D PREFETCHER ACCESS:     723203  HIT:     723203  MISS:          0  HIT %:        100  MISS %:          0   MPKI: 0
PSCL2 PREFETCH  REQUESTED:          0  ISSUED:          0  USEFUL:          0  USELESS:          0
PSCL2 USEFUL LOAD PREFETCHES:          0 PREFETCH ISSUED TO LOWER LEVEL:          0  ACCURACY: -nan
PSCL2 TIMELY PREFETCHES:          0 LATE PREFETCHES: 0 DROPPED PREFETCHES: 0
PSCL2 PREFETCHES SAME FILL-ORIGIN LEVEL: 0 DIFFERENT FILL-ORIGIN LEVEL: 0

LLC TOTAL     ACCESS:   21652761  HIT:   11305482  MISS:   10347279  HIT %:    52.2127  MISS %:    47.7873   MPKI: 51.7364
LLC LOAD      ACCESS:   14080073  HIT:    5868498  MISS:    8211575  HIT %:    41.6795  MISS %:    58.3205   MPKI: 41.0579
LLC RFO       ACCESS:      29053  HIT:        271  MISS:      28782  HIT %:   0.932778  MISS %:    99.0672   MPKI: 0.14391
LLC PREFETCH  ACCESS:    2031694  HIT:     178440  MISS:    1853254  HIT %:    8.78282  MISS %:    91.2172   MPKI: 9.26627
LLC WRITEBACK ACCESS:    5243103  HIT:    5006283  MISS:     236820  HIT %:    95.4832  MISS %:    4.51679   MPKI: 1.1841
LLC LOAD TRANSLATION ACCESS:     256634  HIT:     242472  MISS:      14162  HIT %:    94.4816  MISS %:    5.51836   MPKI: 0.07081
LLC TRANSLATION FROM L1D PREFETCHER ACCESS:      12204  HIT:       9518  MISS:       2686  HIT %:    77.9908  MISS %:    22.0092   MPKI: 0.01343
LLC PREFETCH  REQUESTED:          0  ISSUED:          0  USEFUL:     244591  USELESS:    7169655
LLC USEFUL LOAD PREFETCHES:     244591 PREFETCH ISSUED TO LOWER LEVEL:    7726332  ACCURACY: 3.16568
LLC TIMELY PREFETCHES:     244591 LATE PREFETCHES: 0 DROPPED PREFETCHES: 0
LLC PREFETCHES SAME FILL-ORIGIN LEVEL: 0 DIFFERENT FILL-ORIGIN LEVEL: 0
LLC AVERAGE MISS LATENCY: 1502.09 cycles
LLC RQ	ACCESS:   57525749	FORWARD:          0	MERGED:          0	TO_CACHE:   57525740
LLC WQ	ACCESS:   20978407	FORWARD:          9	MERGED:          0	TO_CACHE:   20978407
LLC PQ	ACCESS:    8114949	FORWARD:          0	MERGED:          0	TO_CACHE:    8114949

LLC Dense regions hint to LLC: 0

RAW hits: 1107393
Loads Generated: 56334214
Loads sent to L1D: 55226821
Stores Generated: 11242728
Stores sent to L1D: 11242726
Major fault: 0 Minor fault: 31033
Allocated PAGES: 124153

CPU 2 cumulative IPC: 0.0978042 instructions: 200000001 cycles: 2044902060
ITLB TOTAL     ACCESS:   36647846  HIT:   36647846  MISS:          0  HIT %:        100  MISS %:          0   MPKI: 0
ITLB LOAD TRANSLATION ACCESS:   36647846  HIT:   36647846  MISS:          0  HIT %:        100  MISS %:          0   MPKI: 0
ITLB PREFETCH  REQUESTED:          0  ISSUED:          0  USEFUL:          0  USELESS:          0
ITLB USEFUL LOAD PREFETCHES:          0 PREFETCH ISSUED TO LOWER LEVEL:          0  ACCURACY: -nan
ITLB TIMELY PREFETCHES:          0 LATE PREFETCHES: 0 DROPPED PREFETCHES: 0
ITLB PREFETCHES SAME FILL-ORIGIN LEVEL: 0 DIFFERENT FILL-ORIGIN LEVEL: 0
ITLB AVERAGE MISS LATENCY: -nan cycles
ITLB RQ	ACCESS:   36953944	FORWARD:          0	MERGED:     306098	TO_CACHE:   36647846

DTLB TOTAL     ACCESS:   56018394  HIT:   47503474  MISS:    8514920  HIT %:    84.7998  MISS %:    15.2002   MPKI: 42.5746
DTLB LOAD TRANSLATION ACCESS:   56018394  HIT:   47503474  MISS:    8514920  HIT %:    84.7998  MISS %:    15.2002   MPKI: 42.5746
DTLB PREFETCH  REQUESTED:          0  ISSUED:          0  USEFUL:          0  USELESS:          0
DTLB USEFUL LOAD PREFETCHES:          0 PREFETCH ISSUED TO LOWER LEVEL:          0  ACCURACY: -nan
DTLB TIMELY PREFETCHES:          0 LATE PREFETCHES: 0 DROPPED PREFETCHES: 0
DTLB PREFETCHES SAME FILL-ORIGIN LEVEL: 0 DIFFERENT FILL-ORIGIN LEVEL: 0
DTLB AVERAGE MISS LATENCY: 19.1903 cycles
DTLB RQ	ACCESS:   62855361	FORWARD:          0	MERGED:    6213840	TO_CACHE:   56641521

STLB TOTAL     ACCESS:   22337977  HIT:   18981287  MISS:    3356690  HIT %:    84.9732  MISS %:    15.0268   MPKI: 16.7834
STLB LOAD TRANSLATION ACCESS:    8514920  HIT:    5242251  MISS:    3272669  HIT %:    61.5655  MISS %:    38.4345   MPKI: 16.3633
STLB TRANSLATION FROM L1D PREFETCHER ACCESS:   13823057  HIT:   13739036  MISS:      84021  HIT %:    99.3922  MISS %:   0.607832   MPKI: 0.420105
STLB PREFETCH  REQUESTED:          0  ISSUED:          0  USEFUL:      82814  USELESS:       1209
STLB USEFUL LOAD PREFETCHES:      82814 PREFETCH ISSUED TO LOWER LEVEL:          0  ACCURACY: inf
STLB TIMELY PREFETCHES:      82814 LATE PREFETCHES: 3283 DROPPED PREFETCHES: 637699
STLB PREFETCHES SAME FILL-ORIGIN LEVEL: 0 DIFFERENT FILL-ORIGIN LEVEL: 0
STLB AVERAGE MISS LATENCY: 26.1583 cycles
STLB RQ	ACCESS:   68698144	FORWARD:          0	MERGED:   45678581	TO_CACHE:   23019563

STLB Hit, L1D data hit: 0
STLB Hit, L2C data hit: 0
STLB Hit, LLC data hit: 0
STLB Hit, LLC data miss: 0
STLB STLB hints to L2: 0
L1D TOTAL     ACCESS:  103089458  HIT:   85763736  MISS:   17325722  HIT %:    83.1935  MISS %:    16.8065   MPKI: 86.6286
L1D LOAD      ACCESS:   51786907  HIT:   35297461  MISS:   16489446  HIT %:     68.159  MISS %:     31.841   MPKI: 82.4472
L1D RFO       ACCESS:   10877746  HIT:   10847998  MISS:      29748  HIT %:    99.7265  MISS %:   0.273476   MPKI: 0.14874
L1D PREFETCH  ACCESS:   40424805  HIT:   39618277  MISS:     806528  HIT %:    98.0049  MISS %:    1.99513   MPKI: 4.03264
L1D PREFETCH  REQUESTED:  135717453  ISSUED:  135593275  USEFUL:     716410  USELESS:      90113
L1D USEFUL LOAD PREFETCHES:     716410 PREFETCH ISSUED TO LOWER LEVEL:   18012334  ACCURACY: 3.97733
L1D TIMELY PREFETCHES:     716410 LATE PREFETCHES: 7411 DROPPED PREFETCHES: 2287907
L1D PREFETCHES SAME FILL-ORIGIN LEVEL: 813939 DIFFERENT FILL-ORIGIN LEVEL: 17198395
L1D AVERAGE MISS LATENCY: 219.595 cycles
L1D RQ	ACCESS:   55225490	FORWARD:          0	MERGED:    3287679	TO_CACHE:   51934762
L1D WQ	ACCESS:   11243307	FORWARD:       3049	MERGED:     322708	TO_CACHE:   10920599
L1D PQ	ACCESS:   75410051	FORWARD:          0	MERGED:   15226827	TO_CACHE:   60183224

L1D UNIQUE REGIONS ACCESSED: 0
L1D REGIONS CONFLICTS: 0
L1D Cross Page Prefetch Requests: 6552775
L1D Same Page Prefetch Requests: 83353941
L1D ROI Sum of L1D PQ occupancy: 806068619
L1D PREFETCHES PUSHED FROM L2C: 0
L1I TOTAL     ACCESS:   36953944  HIT:   36953944  MISS:          0  HIT %:        100  MISS %:          0   MPKI: 0
L1I LOAD      ACCESS:   36953944  HIT:   36953944  MISS:          0  HIT %:        100  MISS %:          0   MPKI: 0
L1I PREFETCH  REQUESTED:          0  ISSUED:          0  USEFUL:          0  USELESS:          0
L1I USEFUL LOAD PREFETCHES:          0 PREFETCH ISSUED TO LOWER LEVEL:          0  ACCURACY: -nan
L1I TIMELY PREFETCHES:          0 LATE PREFETCHES: 0 DROPPED PREFETCHES: 0
L1I PREFETCHES SAME FILL-ORIGIN LEVEL: 0 DIFFERENT FILL-ORIGIN LEVEL: 0
L1I AVERAGE MISS LATENCY: -nan cycles
L1I RQ	ACCESS:   48242165	FORWARD:          0	MERGED:   11288221	TO_CACHE:   36953944

BTB TOTAL     ACCESS:   35192422  HIT:   35192414  MISS:          8  HIT %:        100  MISS %: 2.27322e-05   MPKI: 4e-05
BTB BRANCH_DIRECT_JUMP	ACCESS:     253420  HIT:     253418  MISS:          2
BTB BRANCH_INDIRECT	ACCESS:          0  HIT:          0  MISS:          0
BTB BRANCH_CONDITIONAL	ACCESS:   34938974  HIT:   34938970  MISS:          4
BTB BRANCH_DIRECT_CALL	ACCESS:         14  HIT:         13  MISS:          1
BTB BRANCH_INDIRECT_CALL	ACCESS:          0  HIT:          0  MISS:          0
BTB BRANCH_RETURN	ACCESS:         14  HIT:         13  MISS:          1
BTB BRANCH_OTHER ACCESS:          0  HIT:          0  MISS:          0

L2C TOTAL     ACCESS:   43422254  HIT:   26522639  MISS:   16899615  HIT %:    61.0808  MISS %:    38.9192   MPKI: 84.4981
L2C LOAD      ACCESS:   16482034  HIT:    2335683  MISS:   14146351  HIT %:    14.1711  MISS %:    85.8289   MPKI: 70.7318
L2C DATA LOAD MPKI: 70.7318
L2C INSTRUCTION LOAD MPKI: 0
L2C RFO       ACCESS:      29748  HIT:        698  MISS:      29050  HIT %:    2.34638  MISS %:    97.6536   MPKI: 0.14525
L2C PREFETCH  ACCESS:   17371307  HIT:   15399729  MISS:    1971578  HIT %:    88.6504  MISS %:    11.3496   MPKI: 9.85789
L2C DATA PREFETCH MPKI: 9.85789
L2C INSTRUCTION PREFETCH MPKI: 0
L2C WRITEBACK ACCESS:    5542470  HIT:    5079115  MISS:     463355  HIT %:    91.6399  MISS %:    8.36008   MPKI: 2.31677
L2C LOAD TRANSLATION ACCESS:    3271117  HIT:    2994964  MISS:     276153  HIT %:    91.5578  MISS %:    8.44216   MPKI: 1.38076
L2C TRANSLATION FROM L1D PREFETCHER ACCESS:     725578  HIT:     712450  MISS:      13128  HIT %:    98.1907  MISS %:    1.80932   MPKI: 0.06564
L2C PREFETCH  REQUESTED:          0  ISSUED:          0  USEFUL:     279409  USELESS:    1705299
L2C USEFUL LOAD PREFETCHES:     279409 PREFETCH ISSUED TO LOWER LEVEL:    2024385  ACCURACY: 13.8022
L2C TIMELY PREFETCHES:     279409 LATE PREFETCHES: 52807 DROPPED PREFETCHES: 0
L2C PREFETCHES SAME FILL-ORIGIN LEVEL: 1664899 DIFFERENT FILL-ORIGIN LEVEL: 0
L2C AVERAGE MISS LATENCY: 257.318 cycles
L2C RQ	ACCESS:   20508478	FORWARD:          0	MERGED:          0	TO_CACHE:   20508477
L2C WQ	ACCESS:    5542470	FORWARD:          1	MERGED:          0	TO_CACHE:    5542470
L2C PQ	ACCESS:   18010125	FORWARD:          0	MERGED:      23597	TO_CACHE:   17986528

L2C Instructions Evicting Data 0
L2C Translations Evicting Data 282128
L2C Data Evicting Data 15876739
L2C Instructions Evicting Instructions 0
L2C Translations Evicting Instructions 0
L2C Data Evicting Instructions 0
L2C Instructions Evicting Translations 0
L2C Translations Evicting Translations 7153
L2C Data Evicting Translations 270240
L2C Dense regions hint from L2: 0
PSCL5 TOTAL     ACCESS:    3995565  HIT:    3995565  MISS:          0  HIT %:        100  MISS %:          0   MPKI: 0
PSCL5 LOAD TRANSLATION ACCESS:    3270562  HIT:    3270562  MISS:          0  HIT %:        100  MISS %:          0   MPKI: 0
PSCL5 TRANSLATION FROM L1D PREFETCHER ACCESS:     725003  HIT:     725003  MISS:          0  HIT %:        100  MISS %:          0   MPKI: 0
PSCL5 PREFETCH  REQUESTED:          0  ISSUED:          0  USEFUL:          0  USELESS:          0
PSCL5 USEFUL LOAD PREFETCHES:          0 PREFETCH ISSUED TO LOWER LEVEL:          0  ACCURACY: -nan
PSCL5 TIMELY PREFETCHES:          0 LATE PREFETCHES: 0 DROPPED PREFETCHES: 0
PSCL5 PREFETCHES SAME FILL-ORIGIN LEVEL: 0 DIFFERENT FILL-ORIGIN LEVEL: 0

PSCL4 TOTAL     ACCESS:    3995565  HIT:    3995565  MISS:          0  HIT %:        100  MISS %:          0   MPKI: 0
PSCL4 LOAD TRANSLATION ACCESS:    3270562  HIT:    3270562  MISS:          0  HIT %:        100  MISS %:          0   MPKI: 0
PSCL4 TRANSLATION FROM L1D PREFETCHER ACCESS:     725003  HIT:     725003  MISS:          0  HIT %:        100  MISS %:          0   MPKI: 0
PSCL4 PREFETCH  REQUESTED:          0  ISSUED:          0  USEFUL:          0  USELESS:          0
PSCL4 USEFUL LOAD PREFETCHES:          0 PREFETCH ISSUED TO LOWER LEVEL:          0  ACCURACY: -nan
PSCL4 TIMELY PREFETCHES:          0 LATE PREFETCHES: 0 DROPPED PREFETCHES: 0
PSCL4 PREFETCHES SAME FILL-ORIGIN LEVEL: 0 DIFFERENT FILL-ORIGIN LEVEL: 0

PSCL3 TOTAL     ACCESS:    3995565  HIT:    3995565  MISS:          0  HIT %:        100  MISS %:          0   MPKI: 0
PSCL3 LOAD TRANSLATION ACCESS:    3270562  HIT:    3270562  MISS:          0  HIT %:        100  MISS %:          0   MPKI: 0
PSCL3 TRANSLATION FROM L1D PREFETCHER ACCESS:     725003  HIT:     725003  MISS:          0  HIT %:        100  MISS %:          0   MPKI: 0
PSCL3 PREFETCH  REQUESTED:          0  ISSUED:          0  USEFUL:          0  USELESS:          0
PSCL3 USEFUL LOAD PREFETCHES:          0 PREFETCH ISSUED TO LOWER LEVEL:          0  ACCURACY: -nan
PSCL3 TIMELY PREFETCHES:          0 LATE PREFETCHES: 0 DROPPED PREFETCHES: 0
PSCL3 PREFETCHES SAME FILL-ORIGIN LEVEL: 0 DIFFERENT FILL-ORIGIN LEVEL: 0

PSCL2 TOTAL     ACCESS:    3994212  HIT:    3993607  MISS:        605  HIT %:    99.9849  MISS %:  0.0151469   MPKI: 0.003025
PSCL2 LOAD TRANSLATION ACCESS:    3270575  HIT:    3269970  MISS:        605  HIT %:    99.9815  MISS %:  0.0184983   MPKI: 0.003025
PSCL2 TRANSLATION FROM L1D PREFETCHER ACCESS:     723637  HIT:     723637  MISS:          0  HIT %:        100  MISS %:          0   MPKI: 0
PSCL2 PREFETCH  REQUESTED:          0  ISSUED:          0  USEFUL:          0  USELESS:          0
PSCL2 USEFUL LOAD PREFETCHES:          0 PREFETCH ISSUED TO LOWER LEVEL:          0  ACCURACY: -nan
PSCL2 TIMELY PREFETCHES:          0 LATE PREFETCHES: 0 DROPPED PREFETCHES: 0
PSCL2 PREFETCHES SAME FILL-ORIGIN LEVEL: 0 DIFFERENT FILL-ORIGIN LEVEL: 0

LLC TOTAL     ACCESS:   21673072  HIT:   11319761  MISS:   10353311  HIT %:    52.2296  MISS %:    47.7704   MPKI: 51.7666
LLC LOAD      ACCESS:   14093543  HIT:    5891028  MISS:    8202515  HIT %:    41.7995  MISS %:    58.2005   MPKI: 41.0126
LLC RFO       ACCESS:      29050  HIT:        337  MISS:      28713  HIT %:    1.16007  MISS %:    98.8399   MPKI: 0.143565
LLC PREFETCH  ACCESS:    2024385  HIT:     166990  MISS:    1857395  HIT %:    8.24892  MISS %:    91.7511   MPKI: 9.28697
LLC WRITEBACK ACCESS:    5236813  HIT:    4987250  MISS:     249563  HIT %:    95.2344  MISS %:    4.76555   MPKI: 1.24781
LLC LOAD TRANSLATION ACCESS:     276153  HIT:     263588  MISS:      12565  HIT %:      95.45  MISS %:    4.55001   MPKI: 0.062825
LLC TRANSLATION FROM L1D PREFETCHER ACCESS:      13128  HIT:      10568  MISS:       2560  HIT %:    80.4997  MISS %:    19.5003   MPKI: 0.0128
LLC PREFETCH  REQUESTED:          0  ISSUED:          0  USEFUL:     244591  USELESS:    7169655
LLC USEFUL LOAD PREFETCHES:     244591 PREFETCH ISSUED TO LOWER LEVEL:    7726332  ACCURACY: 3.16568
LLC TIMELY PREFETCHES:     244591 LATE PREFETCHES: 0 DROPPED PREFETCHES: 0
LLC PREFETCHES SAME FILL-ORIGIN LEVEL: 0 DIFFERENT FILL-ORIGIN LEVEL: 0
LLC AVERAGE MISS LATENCY: 1501.22 cycles
LLC RQ	ACCESS:   57525749	FORWARD:          0	MERGED:          0	TO_CACHE:   57525740
LLC WQ	ACCESS:   20978407	FORWARD:          9	MERGED:          0	TO_CACHE:   20978407
LLC PQ	ACCESS:    8114949	FORWARD:          0	MERGED:          0	TO_CACHE:    8114949

LLC Dense regions hint to LLC: 0

RAW hits: 1109494
Loads Generated: 56334986
Loads sent to L1D: 55225490
Stores Generated: 11243308
Stores sent to L1D: 11243307
Major fault: 0 Minor fault: 31026
Allocated PAGES: 124153

CPU 3 cumulative IPC: 0.0980692 instructions: 200000002 cycles: 2039375787
ITLB TOTAL     ACCESS:   36644767  HIT:   36644767  MISS:          0  HIT %:        100  MISS %:          0   MPKI: 0
ITLB LOAD TRANSLATION ACCESS:   36644767  HIT:   36644767  MISS:          0  HIT %:        100  MISS %:          0   MPKI: 0
ITLB PREFETCH  REQUESTED:          0  ISSUED:          0  USEFUL:          0  USELESS:          0
ITLB USEFUL LOAD PREFETCHES:          0 PREFETCH ISSUED TO LOWER LEVEL:          0  ACCURACY: -nan
ITLB TIMELY PREFETCHES:          0 LATE PREFETCHES: 0 DROPPED PREFETCHES: 0
ITLB PREFETCHES SAME FILL-ORIGIN LEVEL: 0 DIFFERENT FILL-ORIGIN LEVEL: 0
ITLB AVERAGE MISS LATENCY: -nan cycles
ITLB RQ	ACCESS:   37065611	FORWARD:          0	MERGED:     307110	TO_CACHE:   36758501

DTLB TOTAL     ACCESS:   56014686  HIT:   47508065  MISS:    8506621  HIT %:    84.8136  MISS %:    15.1864   MPKI: 42.5331
DTLB LOAD TRANSLATION ACCESS:   56014686  HIT:   47508065  MISS:    8506621  HIT %:    84.8136  MISS %:    15.1864   MPKI: 42.5331
DTLB PREFETCH  REQUESTED:          0  ISSUED:          0  USEFUL:          0  USELESS:          0
DTLB USEFUL LOAD PREFETCHES:          0 PREFETCH ISSUED TO LOWER LEVEL:          0  ACCURACY: -nan
DTLB TIMELY PREFETCHES:          0 LATE PREFETCHES: 0 DROPPED PREFETCHES: 0
DTLB PREFETCHES SAME FILL-ORIGIN LEVEL: 0 DIFFERENT FILL-ORIGIN LEVEL: 0
DTLB AVERAGE MISS LATENCY: 19.2004 cycles
DTLB RQ	ACCESS:   63029543	FORWARD:          0	MERGED:    6231162	TO_CACHE:   56798381

STLB TOTAL     ACCESS:   22549284  HIT:   19191816  MISS:    3357468  HIT %:    85.1105  MISS %:    14.8895   MPKI: 16.7873
STLB LOAD TRANSLATION ACCESS:    8506621  HIT:    5233245  MISS:    3273376  HIT %:    61.5197  MISS %:    38.4803   MPKI: 16.3669
STLB TRANSLATION FROM L1D PREFETCHER ACCESS:   14042663  HIT:   13958571  MISS:      84092  HIT %:    99.4012  MISS %:   0.598832   MPKI: 0.42046
STLB PREFETCH  REQUESTED:          0  ISSUED:          0  USEFUL:      82942  USELESS:       1201
STLB USEFUL LOAD PREFETCHES:      82942 PREFETCH ISSUED TO LOWER LEVEL:          0  ACCURACY: inf
STLB TIMELY PREFETCHES:      82942 LATE PREFETCHES: 3346 DROPPED PREFETCHES: 638098
STLB PREFETCHES SAME FILL-ORIGIN LEVEL: 0 DIFFERENT FILL-ORIGIN LEVEL: 0
STLB AVERAGE MISS LATENCY: 26.0785 cycles
STLB RQ	ACCESS:   69076666	FORWARD:          0	MERGED:   45773116	TO_CACHE:   23303550

STLB Hit, L1D data hit: 0
STLB Hit, L2C data hit: 0
STLB Hit, LLC data hit: 0
STLB Hit, LLC data miss: 0
STLB STLB hints to L2: 0
L1D TOTAL     ACCESS:  103140566  HIT:   85816028  MISS:   17324538  HIT %:     83.203  MISS %:     16.797   MPKI: 86.6227
L1D LOAD      ACCESS:   51784394  HIT:   35295544  MISS:   16488850  HIT %:    68.1587  MISS %:    31.8413   MPKI: 82.4442
L1D RFO       ACCESS:   10878313  HIT:   10848527  MISS:      29786  HIT %:    99.7262  MISS %:   0.273811   MPKI: 0.14893
L1D PREFETCH  ACCESS:   40477859  HIT:   39671957  MISS:     805902  HIT %:     98.009  MISS %:    1.99097   MPKI: 4.02951
L1D PREFETCH  REQUESTED:  136471386  ISSUED:  136327215  USEFUL:     718271  USELESS:      90263
L1D USEFUL LOAD PREFETCHES:     718271 PREFETCH ISSUED TO LOWER LEVEL:   18197858  ACCURACY: 3.94701
L1D TIMELY PREFETCHES:     718271 LATE PREFETCHES: 7195 DROPPED PREFETCHES: 2291791
L1D PREFETCHES SAME FILL-ORIGIN LEVEL: 815701 DIFFERENT FILL-ORIGIN LEVEL: 17382157
L1D AVERAGE MISS LATENCY: 220.209 cycles
L1D RQ	ACCESS:   55378849	FORWARD:          0	MERGED:    3296580	TO_CACHE:   52079205
L1D WQ	ACCESS:   11274607	FORWARD:       3064	MERGED:     324269	TO_CACHE:   10950338
L1D PQ	ACCESS:   75792989	FORWARD:          0	MERGED:   15258763	TO_CACHE:   60534226

L1D UNIQUE REGIONS ACCESSED: 0
L1D REGIONS CONFLICTS: 0
L1D Cross Page Prefetch Requests: 6574986
L1D Same Page Prefetch Requests: 83734202
L1D ROI Sum of L1D PQ occupancy: 812129801
L1D PREFETCHES PUSHED FROM L2C: 0
L1I TOTAL     ACCESS:   36951446  HIT:   36951446  MISS:          0  HIT %:        100  MISS %:          0   MPKI: 0
L1I LOAD      ACCESS:   36951446  HIT:   36951446  MISS:          0  HIT %:        100  MISS %:          0   MPKI: 0
L1I PREFETCH  REQUESTED:          0  ISSUED:          0  USEFUL:          0  USELESS:          0
L1I USEFUL LOAD PREFETCHES:          0 PREFETCH ISSUED TO LOWER LEVEL:          0  ACCURACY: -nan
L1I TIMELY PREFETCHES:          0 LATE PREFETCHES: 0 DROPPED PREFETCHES: 0
L1I PREFETCHES SAME FILL-ORIGIN LEVEL: 0 DIFFERENT FILL-ORIGIN LEVEL: 0
L1I AVERAGE MISS LATENCY: -nan cycles
L1I RQ	ACCESS:   48382808	FORWARD:          0	MERGED:   11317197	TO_CACHE:   37065611

BTB TOTAL     ACCESS:   35189023  HIT:   35189009  MISS:         14  HIT %:        100  MISS %: 3.97851e-05   MPKI: 7e-05
BTB BRANCH_DIRECT_JUMP	ACCESS:     253973  HIT:     253969  MISS:          4
BTB BRANCH_INDIRECT	ACCESS:          0  HIT:          0  MISS:          0
BTB BRANCH_CONDITIONAL	ACCESS:   34935022  HIT:   34935014  MISS:          8
BTB BRANCH_DIRECT_CALL	ACCESS:         14  HIT:         13  MISS:          1
BTB BRANCH_INDIRECT_CALL	ACCESS:          0  HIT:          0  MISS:          0
BTB BRANCH_RETURN	ACCESS:         14  HIT:         13  MISS:          1
BTB BRANCH_OTHER ACCESS:          0  HIT:          0  MISS:          0

L2C TOTAL     ACCESS:   43579728  HIT:   26780375  MISS:   16799353  HIT %:    61.4515  MISS %:    38.5485   MPKI: 83.9968
L2C LOAD      ACCESS:   16481662  HIT:    2331356  MISS:   14150306  HIT %:    14.1452  MISS %:    85.8548   MPKI: 70.7515
L2C DATA LOAD MPKI: 70.7515
L2C INSTRUCTION LOAD MPKI: 0
L2C RFO       ACCESS:      29786  HIT:        745  MISS:      29041  HIT %:    2.50118  MISS %:    97.4988   MPKI: 0.145205
L2C PREFETCH  ACCESS:   17528046  HIT:   15555978  MISS:    1972068  HIT %:    88.7491  MISS %:    11.2509   MPKI: 9.86034
L2C DATA PREFETCH MPKI: 9.86034
L2C INSTRUCTION PREFETCH MPKI: 0
L2C WRITEBACK ACCESS:    5543258  HIT:    5121511  MISS:     421747  HIT %:    92.3917  MISS %:    7.60829   MPKI: 2.10873
L2C LOAD TRANSLATION ACCESS:    3271774  HIT:    3057843  MISS:     213931  HIT %:    93.4613  MISS %:    6.53869   MPKI: 1.06965
L2C TRANSLATION FROM L1D PREFETCHER ACCESS:     725202  HIT:     712942  MISS:      12260  HIT %:    98.3094  MISS %:    1.69056   MPKI: 0.0613
L2C PREFETCH  REQUESTED:          0  ISSUED:          0  USEFUL:     277916  USELESS:    1709537
L2C USEFUL LOAD PREFETCHES:     277916 PREFETCH ISSUED TO LOWER LEVEL:    2027861  ACCURACY: 13.7049
L2C TIMELY PREFETCHES:     277916 LATE PREFETCHES: 52799 DROPPED PREFETCHES: 0
L2C PREFETCHES SAME FILL-ORIGIN LEVEL: 1663642 DIFFERENT FILL-ORIGIN LEVEL: 0
L2C AVERAGE MISS LATENCY: 259.438 cycles
L2C RQ	ACCESS:   20567240	FORWARD:          0	MERGED:          0	TO_CACHE:   20567239
L2C WQ	ACCESS:    5558093	FORWARD:          1	MERGED:          0	TO_CACHE:    5558093
L2C PQ	ACCESS:   18196959	FORWARD:          0	MERGED:      22849	TO_CACHE:   18174110

L2C Instructions Evicting Data 0
L2C Translations Evicting Data 225822
L2C Data Evicting Data 15974226
L2C Instructions Evicting Instructions 0
L2C Translations Evicting Instructions 0
L2C Data Evicting Instructions 0
L2C Instructions Evicting Translations 0
L2C Translations Evicting Translations 795
L2C Data Evicting Translations 220193
L2C Dense regions hint from L2: 0
PSCL5 TOTAL     ACCESS:    3995812  HIT:    3995812  MISS:          0  HIT %:        100  MISS %:          0   MPKI: 0
PSCL5 LOAD TRANSLATION ACCESS:    3271219  HIT:    3271219  MISS:          0  HIT %:        100  MISS %:          0   MPKI: 0
PSCL5 TRANSLATION FROM L1D PREFETCHER ACCESS:     724593  HIT:     724593  MISS:          0  HIT %:        100  MISS %:          0   MPKI: 0
PSCL5 PREFETCH  REQUESTED:          0  ISSUED:          0  USEFUL:          0  USELESS:          0
PSCL5 USEFUL LOAD PREFETCHES:          0 PREFETCH ISSUED TO LOWER LEVEL:          0  ACCURACY: -nan
PSCL5 TIMELY PREFETCHES:          0 LATE PREFETCHES: 0 DROPPED PREFETCHES: 0
PSCL5 PREFETCHES SAME FILL-ORIGIN LEVEL: 0 DIFFERENT FILL-ORIGIN LEVEL: 0

PSCL4 TOTAL     ACCESS:    3995812  HIT:    3995812  MISS:          0  HIT %:        100  MISS %:          0   MPKI: 0
PSCL4 LOAD TRANSLATION ACCESS:    3271219  HIT:    3271219  MISS:          0  HIT %:        100  MISS %:          0   MPKI: 0
PSCL4 TRANSLATION FROM L1D PREFETCHER ACCESS:     724593  HIT:     724593  MISS:          0  HIT %:        100  MISS %:          0   MPKI: 0
PSCL4 PREFETCH  REQUESTED:          0  ISSUED:          0  USEFUL:          0  USELESS:          0
PSCL4 USEFUL LOAD PREFETCHES:          0 PREFETCH ISSUED TO LOWER LEVEL:          0  ACCURACY: -nan
PSCL4 TIMELY PREFETCHES:          0 LATE PREFETCHES: 0 DROPPED PREFETCHES: 0
PSCL4 PREFETCHES SAME FILL-ORIGIN LEVEL: 0 DIFFERENT FILL-ORIGIN LEVEL: 0

PSCL3 TOTAL     ACCESS:    3995812  HIT:    3995812  MISS:          0  HIT %:        100  MISS %:          0   MPKI: 0
PSCL3 LOAD TRANSLATION ACCESS:    3271219  HIT:    3271219  MISS:          0  HIT %:        100  MISS %:          0   MPKI: 0
PSCL3 TRANSLATION FROM L1D PREFETCHER ACCESS:     724593  HIT:     724593  MISS:          0  HIT %:        100  MISS %:          0   MPKI: 0
PSCL3 PREFETCH  REQUESTED:          0  ISSUED:          0  USEFUL:          0  USELESS:          0
PSCL3 USEFUL LOAD PREFETCHES:          0 PREFETCH ISSUED TO LOWER LEVEL:          0  ACCURACY: -nan
PSCL3 TIMELY PREFETCHES:          0 LATE PREFETCHES: 0 DROPPED PREFETCHES: 0
PSCL3 PREFETCHES SAME FILL-ORIGIN LEVEL: 0 DIFFERENT FILL-ORIGIN LEVEL: 0

PSCL2 TOTAL     ACCESS:    3994462  HIT:    3993858  MISS:        604  HIT %:    99.9849  MISS %:  0.0151209   MPKI: 0.00302
PSCL2 LOAD TRANSLATION ACCESS:    3271231  HIT:    3270627  MISS:        604  HIT %:    99.9815  MISS %:   0.018464   MPKI: 0.00302
PSCL2 TRANSLATION FROM L1D PREFETCHER ACCESS:     723231  HIT:     723231  MISS:          0  HIT %:        100  MISS %:          0   MPKI: 0
PSCL2 PREFETCH  REQUESTED:          0  ISSUED:          0  USEFUL:          0  USELESS:          0
PSCL2 USEFUL LOAD PREFETCHES:          0 PREFETCH ISSUED TO LOWER LEVEL:          0  ACCURACY: -nan
PSCL2 TIMELY PREFETCHES:          0 LATE PREFETCHES: 0 DROPPED PREFETCHES: 0
PSCL2 PREFETCHES SAME FILL-ORIGIN LEVEL: 0 DIFFERENT FILL-ORIGIN LEVEL: 0

LLC TOTAL     ACCESS:   21613331  HIT:   11290236  MISS:   10323095  HIT %:    52.2374  MISS %:    47.7626   MPKI: 51.6155
LLC LOAD      ACCESS:   14097504  HIT:    5915022  MISS:    8182482  HIT %:    41.9579  MISS %:    58.0421   MPKI: 40.9124
LLC RFO       ACCESS:      29041  HIT:        266  MISS:      28775  HIT %:   0.915946  MISS %:    99.0841   MPKI: 0.143875
LLC PREFETCH  ACCESS:    2024867  HIT:     181745  MISS:    1843122  HIT %:    8.97565  MISS %:    91.0243   MPKI: 9.21561
LLC WRITEBACK ACCESS:    5235728  HIT:    4985576  MISS:     250152  HIT %:    95.2222  MISS %:    4.77779   MPKI: 1.25076
LLC LOAD TRANSLATION ACCESS:     213931  HIT:     198103  MISS:      15828  HIT %:    92.6014  MISS %:    7.39865   MPKI: 0.07914
LLC TRANSLATION FROM L1D PREFETCHER ACCESS:      12260  HIT:       9524  MISS:       2736  HIT %:    77.6835  MISS %:    22.3165   MPKI: 0.01368
LLC PREFETCH  REQUESTED:          0  ISSUED:          0  USEFUL:     244591  USELESS:    7169655
LLC USEFUL LOAD PREFETCHES:     244591 PREFETCH ISSUED TO LOWER LEVEL:    7726332  ACCURACY: 3.16568
LLC TIMELY PREFETCHES:     244591 LATE PREFETCHES: 0 DROPPED PREFETCHES: 0
LLC PREFETCHES SAME FILL-ORIGIN LEVEL: 0 DIFFERENT FILL-ORIGIN LEVEL: 0
LLC AVERAGE MISS LATENCY: 1505.61 cycles
LLC RQ	ACCESS:   57525749	FORWARD:          0	MERGED:          0	TO_CACHE:   57525740
LLC WQ	ACCESS:   20978407	FORWARD:          9	MERGED:          0	TO_CACHE:   20978407
LLC PQ	ACCESS:    8114949	FORWARD:          0	MERGED:          0	TO_CACHE:    8114949

LLC Dense regions hint to LLC: 0

RAW hits: 1113180
Loads Generated: 56336787
Loads sent to L1D: 55223607
Stores Generated: 11244936
Stores sent to L1D: 11244938
Major fault: 0 Minor fault: 31051
Allocated PAGES: 124153

DRAM Statistics
 CHANNEL 0
 RQ ROW_BUFFER_HIT:    2662223  ROW_BUFFER_MISS:   37742246
 DBUS_CONGESTED:          0
 WQ ROW_BUFFER_HIT:     694190  ROW_BUFFER_MISS:   16238286  FULL:          0

 AVG_CONGESTED_CYCLE: -
 All warmup complete: 5
Channel 0 Bank busy for read cycles: 0
Channel 0 Bank busy for write cycles: 0
Channel 0
Rank 0
0banks busy for read cycles: 287157
0banks busy for write cycles: 0
1banks busy for read cycles: 72431293
1banks busy for write cycles: 1872606
2banks busy for read cycles: 223162119
2banks busy for write cycles: 1872504
3banks busy for read cycles: 338985097
3banks busy for write cycles: 1872481
4banks busy for read cycles: 336014457
4banks busy for write cycles: 1877202
5banks busy for read cycles: 254234324
5banks busy for write cycles: 2229306
6banks busy for read cycles: 158675294
6banks busy for write cycles: 12254895
7banks busy for read cycles: 87578232
7banks busy for write cycles: 109787161
8banks busy for read cycles: 62348795
8banks busy for write cycles: 379419138

CPU 0 Branch Prediction Accuracy: 85.1881% MPKI: 26.0389 Average ROB Occupancy at Mispredict: 32.9605
Branch types
NOT_BRANCH: 164857700 82.3875%
BRANCH_DIRECT_JUMP: 253332 0.126603%
BRANCH_INDIRECT: 0 0%
BRANCH_CONDITIONAL: 34989249 17.4859%
BRANCH_DIRECT_CALL: 14 6.99649e-06%
BRANCH_INDIRECT_CALL: 0 0%
BRANCH_RETURN: 14 6.99649e-06%
BRANCH_OTHER: 0 0%


CPU 1 Branch Prediction Accuracy: 85.1873% MPKI: 26.0415 Average ROB Occupancy at Mispredict: 33.004
Branch types
NOT_BRANCH: 164781194 82.388%
BRANCH_DIRECT_JUMP: 253305 0.126649%
BRANCH_INDIRECT: 0 0%
BRANCH_CONDITIONAL: 34971796 17.4853%
BRANCH_DIRECT_CALL: 14 6.99978e-06%
BRANCH_INDIRECT_CALL: 0 0%
BRANCH_RETURN: 14 6.99978e-06%
BRANCH_OTHER: 0 0%


CPU 2 Branch Prediction Accuracy: 85.1865% MPKI: 26.0505 Average ROB Occupancy at Mispredict: 32.9791
Branch types
NOT_BRANCH: 164776796 82.3884%
BRANCH_DIRECT_JUMP: 253420 0.12671%
BRANCH_INDIRECT: 0 0%
BRANCH_CONDITIONAL: 34969764 17.4849%
BRANCH_DIRECT_CALL: 14 7e-06%
BRANCH_INDIRECT_CALL: 0 0%
BRANCH_RETURN: 14 7e-06%
BRANCH_OTHER: 0 0%


CPU 3 Branch Prediction Accuracy: 85.1875% MPKI: 26.0884 Average ROB Occupancy at Mispredict: 33.1151
Branch types
NOT_BRANCH: 165243948 82.3874%
BRANCH_DIRECT_JUMP: 254404 0.126841%
BRANCH_INDIRECT: 0 0%
BRANCH_CONDITIONAL: 35070617 17.4855%
BRANCH_DIRECT_CALL: 14 6.98013e-06%
BRANCH_INDIRECT_CALL: 0 0%
BRANCH_RETURN: 14 6.98013e-06%
BRANCH_OTHER: 0 0%

DRAM PAGES: 1048576
Allocated PAGES: 124153
