
*** ChampSim Multicore Out-of-Order Simulator ***

Warmup Instructions: 50000000
Simulation Instructions: 200000000
Number of CPUs: 4
LLC sets: 8192
LLC ways: 16
Off-chip DRAM Size: 4096 MB Channels: 1 Width: 64-bit Data Rate: 6400 MT/s
CPU 0 runs ./traces/ligra/ligra_PageRank.com-lj.ungraph.gcc_6.3.0_O3.drop_500M.length_250M.champsimtrace.xz
.xz
CPU 1 runs ./traces/ligra/ligra_PageRank.com-lj.ungraph.gcc_6.3.0_O3.drop_500M.length_250M.champsimtrace.xz
.xz
CPU 2 runs ./traces/ligra/ligra_PageRank.com-lj.ungraph.gcc_6.3.0_O3.drop_500M.length_250M.champsimtrace.xz
.xz
CPU 3 runs ./traces/ligra/ligra_PageRank.com-lj.ungraph.gcc_6.3.0_O3.drop_500M.length_250M.champsimtrace.xz
.xz
BTB has LRU replacement policy
ITLB has LRU replacement policy
DTLB has LRU replacement policy
STLB has LRU replacement policy
L1I has LRU replacement policy
History Sets: 8
History Ways: 16
BERTI Size: 16
BERTI Stride Size: 8
L1D has LRU replacement policy
Initialize SRRIP state for L2C
Initialize DRRIP state for LLC
BTB has LRU replacement policy
ITLB has LRU replacement policy
DTLB has LRU replacement policy
STLB has LRU replacement policy
L1I has LRU replacement policy
History Sets: 8
History Ways: 16
BERTI Size: 16
BERTI Stride Size: 8
L1D has LRU replacement policy
Initialize SRRIP state for L2C
Initialize DRRIP state for LLC
BTB has LRU replacement policy
ITLB has LRU replacement policy
DTLB has LRU replacement policy
STLB has LRU replacement policy
L1I has LRU replacement policy
History Sets: 8
History Ways: 16
BERTI Size: 16
BERTI Stride Size: 8
L1D has LRU replacement policy
Initialize SRRIP state for L2C
Initialize DRRIP state for LLC
BTB has LRU replacement policy
ITLB has LRU replacement policy
DTLB has LRU replacement policy
STLB has LRU replacement policy
L1I has LRU replacement policy
History Sets: 8
History Ways: 16
BERTI Size: 16
BERTI Stride Size: 8
L1D has LRU replacement policy
Initialize SRRIP state for L2C
Initialize DRRIP state for LLC
Heartbeat CPU 0 instructions: 10000002 cycles: 3333346 heartbeat IPC: 2.99999 cumulative IPC: 2.99999 (Simulation time: 0 hr 1 min 31 sec) 
Heartbeat CPU 1 instructions: 10000002 cycles: 3333347 heartbeat IPC: 2.99999 cumulative IPC: 2.99999 (Simulation time: 0 hr 1 min 31 sec) 
Heartbeat CPU 2 instructions: 10000002 cycles: 3333348 heartbeat IPC: 2.99999 cumulative IPC: 2.99999 (Simulation time: 0 hr 1 min 31 sec) 
Heartbeat CPU 3 instructions: 10000002 cycles: 3333349 heartbeat IPC: 2.99999 cumulative IPC: 2.99999 (Simulation time: 0 hr 1 min 31 sec) 
Heartbeat CPU 0 instructions: 20000001 cycles: 6666680 heartbeat IPC: 3 cumulative IPC: 2.99999 (Simulation time: 0 hr 3 min 2 sec) 
Heartbeat CPU 1 instructions: 20000001 cycles: 6666681 heartbeat IPC: 3 cumulative IPC: 2.99999 (Simulation time: 0 hr 3 min 2 sec) 
Heartbeat CPU 2 instructions: 20000001 cycles: 6666682 heartbeat IPC: 3 cumulative IPC: 2.99999 (Simulation time: 0 hr 3 min 2 sec) 
Heartbeat CPU 3 instructions: 20000001 cycles: 6666683 heartbeat IPC: 3 cumulative IPC: 2.99999 (Simulation time: 0 hr 3 min 2 sec) 
Heartbeat CPU 0 instructions: 30000001 cycles: 10000012 heartbeat IPC: 3 cumulative IPC: 3 (Simulation time: 0 hr 4 min 42 sec) 
Heartbeat CPU 1 instructions: 30000001 cycles: 10000013 heartbeat IPC: 3 cumulative IPC: 3 (Simulation time: 0 hr 4 min 42 sec) 
Heartbeat CPU 2 instructions: 30000001 cycles: 10000014 heartbeat IPC: 3 cumulative IPC: 3 (Simulation time: 0 hr 4 min 42 sec) 
Heartbeat CPU 3 instructions: 30000001 cycles: 10000015 heartbeat IPC: 3 cumulative IPC: 3 (Simulation time: 0 hr 4 min 42 sec) 
Heartbeat CPU 0 instructions: 40000002 cycles: 13333345 heartbeat IPC: 3 cumulative IPC: 3 (Simulation time: 0 hr 6 min 18 sec) 
Heartbeat CPU 1 instructions: 40000002 cycles: 13333346 heartbeat IPC: 3 cumulative IPC: 3 (Simulation time: 0 hr 6 min 18 sec) 
Heartbeat CPU 2 instructions: 40000002 cycles: 13333347 heartbeat IPC: 3 cumulative IPC: 3 (Simulation time: 0 hr 6 min 18 sec) 
Heartbeat CPU 3 instructions: 40000002 cycles: 13333348 heartbeat IPC: 3 cumulative IPC: 3 (Simulation time: 0 hr 6 min 18 sec) 
Heartbeat CPU 0 instructions: 50000002 cycles: 16666679 heartbeat IPC: 3 cumulative IPC: 3 (Simulation time: 0 hr 7 min 50 sec) 
Heartbeat CPU 1 instructions: 50000002 cycles: 16666680 heartbeat IPC: 3 cumulative IPC: 3 (Simulation time: 0 hr 7 min 50 sec) 
Heartbeat CPU 2 instructions: 50000002 cycles: 16666681 heartbeat IPC: 3 cumulative IPC: 3 (Simulation time: 0 hr 7 min 50 sec) 
Heartbeat CPU 3 instructions: 50000002 cycles: 16666682 heartbeat IPC: 3 cumulative IPC: 3 (Simulation time: 0 hr 7 min 50 sec) 

Warmup complete CPU 0 instructions: 50000011 cycles: 16666682 (Simulation time: 0 hr 7 min 50 sec) 
Warmup complete CPU 1 instructions: 50000008 cycles: 16666682 (Simulation time: 0 hr 7 min 50 sec) 
Warmup complete CPU 2 instructions: 50000005 cycles: 16666682 (Simulation time: 0 hr 7 min 50 sec) 
Warmup complete CPU 3 instructions: 50000002 cycles: 16666682 (Simulation time: 0 hr 7 min 50 sec) 

Heartbeat CPU 0 instructions: 60000000 cycles: 25224514 heartbeat IPC: 1.16852 cumulative IPC: 1.16852 (Simulation time: 0 hr 10 min 45 sec) 
Heartbeat CPU 2 instructions: 60000000 cycles: 25226525 heartbeat IPC: 1.16825 cumulative IPC: 1.16825 (Simulation time: 0 hr 10 min 45 sec) 
Heartbeat CPU 1 instructions: 60000000 cycles: 25229586 heartbeat IPC: 1.16783 cumulative IPC: 1.16783 (Simulation time: 0 hr 10 min 45 sec) 
Heartbeat CPU 3 instructions: 60000000 cycles: 25233397 heartbeat IPC: 1.16731 cumulative IPC: 1.16731 (Simulation time: 0 hr 10 min 45 sec) 
Heartbeat CPU 0 instructions: 70000000 cycles: 33799840 heartbeat IPC: 1.16614 cumulative IPC: 1.16733 (Simulation time: 0 hr 13 min 46 sec) 
Heartbeat CPU 2 instructions: 70000000 cycles: 33801049 heartbeat IPC: 1.16625 cumulative IPC: 1.16724 (Simulation time: 0 hr 13 min 46 sec) 
Heartbeat CPU 1 instructions: 70000000 cycles: 33806582 heartbeat IPC: 1.16591 cumulative IPC: 1.16687 (Simulation time: 0 hr 13 min 46 sec) 
Heartbeat CPU 3 instructions: 70000000 cycles: 33813817 heartbeat IPC: 1.16544 cumulative IPC: 1.16638 (Simulation time: 0 hr 13 min 46 sec) 
Heartbeat CPU 0 instructions: 80000003 cycles: 42386579 heartbeat IPC: 1.16459 cumulative IPC: 1.16641 (Simulation time: 0 hr 17 min 1 sec) 
Heartbeat CPU 2 instructions: 80000003 cycles: 42389909 heartbeat IPC: 1.1643 cumulative IPC: 1.16626 (Simulation time: 0 hr 17 min 1 sec) 
Heartbeat CPU 1 instructions: 80000003 cycles: 42393787 heartbeat IPC: 1.16452 cumulative IPC: 1.16609 (Simulation time: 0 hr 17 min 1 sec) 
Heartbeat CPU 3 instructions: 80000003 cycles: 42401222 heartbeat IPC: 1.1645 cumulative IPC: 1.16575 (Simulation time: 0 hr 17 min 1 sec) 
Heartbeat CPU 0 instructions: 90000001 cycles: 50986283 heartbeat IPC: 1.16283 cumulative IPC: 1.16551 (Simulation time: 0 hr 19 min 57 sec) 
Heartbeat CPU 2 instructions: 90000001 cycles: 50990276 heartbeat IPC: 1.16274 cumulative IPC: 1.16538 (Simulation time: 0 hr 19 min 57 sec) 
Heartbeat CPU 1 instructions: 90000001 cycles: 50995020 heartbeat IPC: 1.16262 cumulative IPC: 1.16522 (Simulation time: 0 hr 19 min 57 sec) 
Heartbeat CPU 3 instructions: 90000001 cycles: 51002461 heartbeat IPC: 1.16262 cumulative IPC: 1.16497 (Simulation time: 0 hr 19 min 58 sec) 
Heartbeat CPU 0 instructions: 100000001 cycles: 59519308 heartbeat IPC: 1.17192 cumulative IPC: 1.16679 (Simulation time: 0 hr 23 min 6 sec) 
Heartbeat CPU 2 instructions: 100000001 cycles: 59525581 heartbeat IPC: 1.1716 cumulative IPC: 1.16662 (Simulation time: 0 hr 23 min 6 sec) 
Heartbeat CPU 1 instructions: 100000001 cycles: 59531990 heartbeat IPC: 1.17138 cumulative IPC: 1.16644 (Simulation time: 0 hr 23 min 6 sec) 
Heartbeat CPU 3 instructions: 100000001 cycles: 59538028 heartbeat IPC: 1.17157 cumulative IPC: 1.16628 (Simulation time: 0 hr 23 min 6 sec) 
Heartbeat CPU 0 instructions: 110000000 cycles: 68035864 heartbeat IPC: 1.17418 cumulative IPC: 1.16802 (Simulation time: 0 hr 25 min 46 sec) 
Heartbeat CPU 2 instructions: 110000000 cycles: 68042428 heartbeat IPC: 1.17414 cumulative IPC: 1.16787 (Simulation time: 0 hr 25 min 46 sec) 
Heartbeat CPU 1 instructions: 110000000 cycles: 68047993 heartbeat IPC: 1.17426 cumulative IPC: 1.16774 (Simulation time: 0 hr 25 min 46 sec) 
Heartbeat CPU 3 instructions: 110000000 cycles: 68053947 heartbeat IPC: 1.17427 cumulative IPC: 1.1676 (Simulation time: 0 hr 25 min 46 sec) 
Heartbeat CPU 0 instructions: 120000001 cycles: 76535075 heartbeat IPC: 1.17658 cumulative IPC: 1.16923 (Simulation time: 0 hr 28 min 38 sec) 
Heartbeat CPU 2 instructions: 120000001 cycles: 76540963 heartbeat IPC: 1.17667 cumulative IPC: 1.16912 (Simulation time: 0 hr 28 min 38 sec) 
Heartbeat CPU 1 instructions: 120000001 cycles: 76547278 heartbeat IPC: 1.17657 cumulative IPC: 1.16899 (Simulation time: 0 hr 28 min 38 sec) 
Heartbeat CPU 3 instructions: 120000001 cycles: 76551896 heartbeat IPC: 1.17675 cumulative IPC: 1.1689 (Simulation time: 0 hr 28 min 38 sec) 
Heartbeat CPU 0 instructions: 130000003 cycles: 85098550 heartbeat IPC: 1.16775 cumulative IPC: 1.16905 (Simulation time: 0 hr 31 min 59 sec) 
Heartbeat CPU 2 instructions: 130000003 cycles: 85103960 heartbeat IPC: 1.16782 cumulative IPC: 1.16895 (Simulation time: 0 hr 31 min 59 sec) 
Heartbeat CPU 1 instructions: 130000003 cycles: 85110402 heartbeat IPC: 1.1678 cumulative IPC: 1.16884 (Simulation time: 0 hr 31 min 59 sec) 
Heartbeat CPU 3 instructions: 130000003 cycles: 85117022 heartbeat IPC: 1.16753 cumulative IPC: 1.16873 (Simulation time: 0 hr 31 min 59 sec) 
Heartbeat CPU 0 instructions: 140000000 cycles: 93713200 heartbeat IPC: 1.16081 cumulative IPC: 1.16813 (Simulation time: 0 hr 35 min 22 sec) 
Heartbeat CPU 2 instructions: 140000000 cycles: 93718561 heartbeat IPC: 1.16082 cumulative IPC: 1.16804 (Simulation time: 0 hr 35 min 22 sec) 
Heartbeat CPU 1 instructions: 140000000 cycles: 93725307 heartbeat IPC: 1.16078 cumulative IPC: 1.16794 (Simulation time: 0 hr 35 min 23 sec) 
Heartbeat CPU 3 instructions: 140000000 cycles: 93730646 heartbeat IPC: 1.16095 cumulative IPC: 1.16786 (Simulation time: 0 hr 35 min 23 sec) 
Heartbeat CPU 0 instructions: 150000001 cycles: 102350269 heartbeat IPC: 1.1578 cumulative IPC: 1.16708 (Simulation time: 0 hr 38 min 46 sec) 
Heartbeat CPU 2 instructions: 150000001 cycles: 102356222 heartbeat IPC: 1.15772 cumulative IPC: 1.167 (Simulation time: 0 hr 38 min 46 sec) 
Heartbeat CPU 1 instructions: 150000001 cycles: 102361008 heartbeat IPC: 1.15798 cumulative IPC: 1.16694 (Simulation time: 0 hr 38 min 46 sec) 
Heartbeat CPU 3 instructions: 150000001 cycles: 102368043 heartbeat IPC: 1.15776 cumulative IPC: 1.16684 (Simulation time: 0 hr 38 min 46 sec) 
Heartbeat CPU 0 instructions: 160000001 cycles: 111041265 heartbeat IPC: 1.15062 cumulative IPC: 1.16557 (Simulation time: 0 hr 41 min 59 sec) 
Heartbeat CPU 2 instructions: 160000001 cycles: 111046748 heartbeat IPC: 1.15068 cumulative IPC: 1.1655 (Simulation time: 0 hr 42 min 0 sec) 
Heartbeat CPU 1 instructions: 160000001 cycles: 111051434 heartbeat IPC: 1.15069 cumulative IPC: 1.16544 (Simulation time: 0 hr 42 min 0 sec) 
Heartbeat CPU 3 instructions: 160000001 cycles: 111059420 heartbeat IPC: 1.15057 cumulative IPC: 1.16534 (Simulation time: 0 hr 42 min 0 sec) 
Heartbeat CPU 0 instructions: 170000000 cycles: 119806458 heartbeat IPC: 1.14088 cumulative IPC: 1.16347 (Simulation time: 0 hr 45 min 18 sec) 
Heartbeat CPU 2 instructions: 170000000 cycles: 119812663 heartbeat IPC: 1.14078 cumulative IPC: 1.1634 (Simulation time: 0 hr 45 min 18 sec) 
Heartbeat CPU 1 instructions: 170000000 cycles: 119819341 heartbeat IPC: 1.14052 cumulative IPC: 1.16332 (Simulation time: 0 hr 45 min 18 sec) 
Heartbeat CPU 3 instructions: 170000000 cycles: 119825546 heartbeat IPC: 1.14075 cumulative IPC: 1.16325 (Simulation time: 0 hr 45 min 18 sec) 
Heartbeat CPU 0 instructions: 180000000 cycles: 128373861 heartbeat IPC: 1.16721 cumulative IPC: 1.16376 (Simulation time: 0 hr 48 min 14 sec) 
Heartbeat CPU 2 instructions: 180000000 cycles: 128379573 heartbeat IPC: 1.16728 cumulative IPC: 1.1637 (Simulation time: 0 hr 48 min 14 sec) 
Heartbeat CPU 1 instructions: 180000000 cycles: 128385837 heartbeat IPC: 1.16734 cumulative IPC: 1.16363 (Simulation time: 0 hr 48 min 15 sec) 
Heartbeat CPU 3 instructions: 180000000 cycles: 128392176 heartbeat IPC: 1.16732 cumulative IPC: 1.16357 (Simulation time: 0 hr 48 min 15 sec) 
Heartbeat CPU 0 instructions: 190000000 cycles: 136912694 heartbeat IPC: 1.17112 cumulative IPC: 1.16428 (Simulation time: 0 hr 51 min 11 sec) 
Heartbeat CPU 2 instructions: 190000000 cycles: 136918037 heartbeat IPC: 1.17117 cumulative IPC: 1.16423 (Simulation time: 0 hr 51 min 11 sec) 
Heartbeat CPU 1 instructions: 190000000 cycles: 136922635 heartbeat IPC: 1.1714 cumulative IPC: 1.16418 (Simulation time: 0 hr 51 min 11 sec) 
Heartbeat CPU 3 instructions: 190000000 cycles: 136929046 heartbeat IPC: 1.17139 cumulative IPC: 1.16412 (Simulation time: 0 hr 51 min 11 sec) 
Heartbeat CPU 0 instructions: 200000000 cycles: 145432636 heartbeat IPC: 1.17372 cumulative IPC: 1.1649 (Simulation time: 0 hr 53 min 56 sec) 
Heartbeat CPU 2 instructions: 200000000 cycles: 145436672 heartbeat IPC: 1.1739 cumulative IPC: 1.16487 (Simulation time: 0 hr 53 min 57 sec) 
Heartbeat CPU 1 instructions: 200000000 cycles: 145441784 heartbeat IPC: 1.17383 cumulative IPC: 1.16482 (Simulation time: 0 hr 53 min 57 sec) 
Heartbeat CPU 3 instructions: 200000000 cycles: 145448637 heartbeat IPC: 1.17377 cumulative IPC: 1.16476 (Simulation time: 0 hr 53 min 57 sec) 
Heartbeat CPU 0 instructions: 210000002 cycles: 153927321 heartbeat IPC: 1.17721 cumulative IPC: 1.16567 (Simulation time: 0 hr 56 min 44 sec) 
Heartbeat CPU 2 instructions: 210000002 cycles: 153932542 heartbeat IPC: 1.17704 cumulative IPC: 1.16562 (Simulation time: 0 hr 56 min 44 sec) 
Heartbeat CPU 1 instructions: 210000002 cycles: 153937851 heartbeat IPC: 1.17702 cumulative IPC: 1.16558 (Simulation time: 0 hr 56 min 44 sec) 
Heartbeat CPU 3 instructions: 210000002 cycles: 153945365 heartbeat IPC: 1.17692 cumulative IPC: 1.16551 (Simulation time: 0 hr 56 min 44 sec) 
Heartbeat CPU 0 instructions: 220000000 cycles: 162428966 heartbeat IPC: 1.17624 cumulative IPC: 1.16628 (Simulation time: 0 hr 59 min 38 sec) 
Heartbeat CPU 2 instructions: 220000000 cycles: 162434944 heartbeat IPC: 1.17614 cumulative IPC: 1.16623 (Simulation time: 0 hr 59 min 38 sec) 
Heartbeat CPU 1 instructions: 220000000 cycles: 162440445 heartbeat IPC: 1.17611 cumulative IPC: 1.16619 (Simulation time: 0 hr 59 min 39 sec) 
Heartbeat CPU 3 instructions: 220000000 cycles: 162447061 heartbeat IPC: 1.17624 cumulative IPC: 1.16614 (Simulation time: 0 hr 59 min 39 sec) 
Heartbeat CPU 0 instructions: 230000002 cycles: 171141621 heartbeat IPC: 1.14776 cumulative IPC: 1.16524 (Simulation time: 1 hr 2 min 46 sec) 
Heartbeat CPU 2 instructions: 230000002 cycles: 171147760 heartbeat IPC: 1.14773 cumulative IPC: 1.16519 (Simulation time: 1 hr 2 min 46 sec) 
Heartbeat CPU 1 instructions: 230000002 cycles: 171153380 heartbeat IPC: 1.14772 cumulative IPC: 1.16515 (Simulation time: 1 hr 2 min 46 sec) 
Heartbeat CPU 3 instructions: 230000002 cycles: 171159427 heartbeat IPC: 1.14779 cumulative IPC: 1.1651 (Simulation time: 1 hr 2 min 46 sec) 
Heartbeat CPU 0 instructions: 240000002 cycles: 179817244 heartbeat IPC: 1.15266 cumulative IPC: 1.16457 (Simulation time: 1 hr 5 min 53 sec) 
Heartbeat CPU 2 instructions: 240000002 cycles: 179823689 heartbeat IPC: 1.15261 cumulative IPC: 1.16452 (Simulation time: 1 hr 5 min 53 sec) 
Heartbeat CPU 1 instructions: 240000002 cycles: 179830093 heartbeat IPC: 1.15251 cumulative IPC: 1.16448 (Simulation time: 1 hr 5 min 53 sec) 
Heartbeat CPU 3 instructions: 240000002 cycles: 179835638 heartbeat IPC: 1.15258 cumulative IPC: 1.16444 (Simulation time: 1 hr 5 min 53 sec) 
*** Reached end of trace for Core: 0 Repeating trace: ./traces/ligra/ligra_PageRank.com-lj.ungraph.gcc_6.3.0_O3.drop_500M.length_250M.champsimtrace.xz
Heartbeat CPU 0 instructions: 250000003 cycles: 188384434 heartbeat IPC: 1.16724 cumulative IPC: 1.1647 (Simulation time: 1 hr 9 min 10 sec) 
Finished CPU 0 instructions: 200000001 cycles: 171718197 cumulative IPC: 1.1647 (Simulation time: 1 hr 9 min 10 sec) 
*** Reached end of trace for Core: 2 Repeating trace: ./traces/ligra/ligra_PageRank.com-lj.ungraph.gcc_6.3.0_O3.drop_500M.length_250M.champsimtrace.xz
Heartbeat CPU 2 instructions: 250000003 cycles: 188389973 heartbeat IPC: 1.16737 cumulative IPC: 1.16466 (Simulation time: 1 hr 9 min 10 sec) 
Finished CPU 2 instructions: 200000003 cycles: 171723743 cumulative IPC: 1.16466 (Simulation time: 1 hr 9 min 10 sec) 
*** Reached end of trace for Core: 1 Repeating trace: ./traces/ligra/ligra_PageRank.com-lj.ungraph.gcc_6.3.0_O3.drop_500M.length_250M.champsimtrace.xz
Heartbeat CPU 1 instructions: 250000003 cycles: 188396586 heartbeat IPC: 1.16734 cumulative IPC: 1.16462 (Simulation time: 1 hr 9 min 10 sec) 
Finished CPU 1 instructions: 200000000 cycles: 171730431 cumulative IPC: 1.16462 (Simulation time: 1 hr 9 min 10 sec) 
*** Reached end of trace for Core: 3 Repeating trace: ./traces/ligra/ligra_PageRank.com-lj.ungraph.gcc_6.3.0_O3.drop_500M.length_250M.champsimtrace.xz
Heartbeat CPU 3 instructions: 250000003 cycles: 188402660 heartbeat IPC: 1.16727 cumulative IPC: 1.16458 (Simulation time: 1 hr 9 min 10 sec) 
Finished CPU 3 instructions: 200000001 cycles: 171735978 cumulative IPC: 1.16458 (Simulation time: 1 hr 9 min 10 sec) 

ChampSim completed all CPUs

Total Simulation Statistics (not including warmup)

CPU 0 cumulative IPC: 1.1647 instructions: 200021379 cycles: 171735978
ITLB TOTAL     ACCESS:   33205587  HIT:   33205587  MISS:          0  HIT %:        100  MISS %:          0   MPKI: 0
ITLB LOAD      ACCESS:          0  HIT:          0  MISS:          0  HIT %:       -nan  MISS %:       -nan   MPKI: 0
ITLB RFO       ACCESS:          0  HIT:          0  MISS:          0  HIT %:       -nan  MISS %:       -nan   MPKI: 0
ITLB PREFETCH  ACCESS:          0  HIT:          0  MISS:          0  HIT %:       -nan  MISS %:       -nan   MPKI: 0
ITLB WRITEBACK ACCESS:          0  HIT:          0  MISS:          0  HIT %:       -nan  MISS %:       -nan   MPKI: 0
DTLB TOTAL     ACCESS:   18110927  HIT:   18103636  MISS:       7291  HIT %:    99.9597  MISS %:  0.0402575   MPKI: 0.0364511
DTLB LOAD      ACCESS:          0  HIT:          0  MISS:          0  HIT %:       -nan  MISS %:       -nan   MPKI: 0
DTLB RFO       ACCESS:          0  HIT:          0  MISS:          0  HIT %:       -nan  MISS %:       -nan   MPKI: 0
DTLB PREFETCH  ACCESS:          0  HIT:          0  MISS:          0  HIT %:       -nan  MISS %:       -nan   MPKI: 0
DTLB WRITEBACK ACCESS:          0  HIT:          0  MISS:          0  HIT %:       -nan  MISS %:       -nan   MPKI: 0
STLB TOTAL     ACCESS:   11285701  HIT:   11278410  MISS:       7291  HIT %:    99.9354  MISS %:  0.0646039   MPKI: 0.0364511
STLB LOAD      ACCESS:          0  HIT:          0  MISS:          0  HIT %:       -nan  MISS %:       -nan   MPKI: 0
STLB RFO       ACCESS:          0  HIT:          0  MISS:          0  HIT %:       -nan  MISS %:       -nan   MPKI: 0
STLB PREFETCH  ACCESS:          0  HIT:          0  MISS:          0  HIT %:       -nan  MISS %:       -nan   MPKI: 0
STLB WRITEBACK ACCESS:          0  HIT:          0  MISS:          0  HIT %:       -nan  MISS %:       -nan   MPKI: 0
L1D TOTAL     ACCESS:   76626740  HIT:   76160201  MISS:     466539  HIT %:    99.3912  MISS %:   0.608846   MPKI: 2.33245
L1D LOAD      ACCESS:   14430304  HIT:   14422961  MISS:       7343  HIT %:    99.9491  MISS %:   0.050886   MPKI: 0.0367111
L1D RFO       ACCESS:    4175319  HIT:    4175319  MISS:          0  HIT %:        100  MISS %:          0   MPKI: 0
L1D PREFETCH  ACCESS:   58021117  HIT:   57561921  MISS:     459196  HIT %:    99.2086  MISS %:   0.791429   MPKI: 2.29573
L1D WRITEBACK ACCESS:          0  HIT:          0  MISS:          0  HIT %:       -nan  MISS %:       -nan   MPKI: 0
L1I TOTAL     ACCESS:   33205587  HIT:   33205587  MISS:          0  HIT %:        100  MISS %:          0   MPKI: 0
L1I LOAD      ACCESS:   33205587  HIT:   33205587  MISS:          0  HIT %:        100  MISS %:          0   MPKI: 0
L1I RFO       ACCESS:          0  HIT:          0  MISS:          0  HIT %:       -nan  MISS %:       -nan   MPKI: 0
L1I PREFETCH  ACCESS:          0  HIT:          0  MISS:          0  HIT %:       -nan  MISS %:       -nan   MPKI: 0
L1I WRITEBACK ACCESS:          0  HIT:          0  MISS:          0  HIT %:       -nan  MISS %:       -nan   MPKI: 0
L2C TOTAL     ACCESS:    3064460  HIT:    2389534  MISS:     674926  HIT %:    77.9757  MISS %:    22.0243   MPKI: 3.37427
L2C LOAD      ACCESS:       3374  HIT:          0  MISS:       3374  HIT %:          0  MISS %:        100   MPKI: 0.0168682
L2C RFO       ACCESS:          0  HIT:          0  MISS:          0  HIT %:       -nan  MISS %:       -nan   MPKI: 0
L2C PREFETCH  ACCESS:    1541362  HIT:    1078197  MISS:     463165  HIT %:    69.9509  MISS %:    30.0491   MPKI: 2.31558
L2C WRITEBACK ACCESS:     466539  HIT:     259078  MISS:     207461  HIT %:    55.5319  MISS %:    44.4681   MPKI: 1.03719
PSCL5 TOTAL     ACCESS:    1053185  HIT:    1053185  MISS:          0  HIT %:        100  MISS %:          0   MPKI: 0
PSCL5 LOAD      ACCESS:          0  HIT:          0  MISS:          0  HIT %:       -nan  MISS %:       -nan   MPKI: 0
PSCL5 RFO       ACCESS:          0  HIT:          0  MISS:          0  HIT %:       -nan  MISS %:       -nan   MPKI: 0
PSCL5 PREFETCH  ACCESS:          0  HIT:          0  MISS:          0  HIT %:       -nan  MISS %:       -nan   MPKI: 0
PSCL5 WRITEBACK ACCESS:          0  HIT:          0  MISS:          0  HIT %:       -nan  MISS %:       -nan   MPKI: 0
PSCL4 TOTAL     ACCESS:    1053185  HIT:    1053185  MISS:          0  HIT %:        100  MISS %:          0   MPKI: 0
PSCL4 LOAD      ACCESS:          0  HIT:          0  MISS:          0  HIT %:       -nan  MISS %:       -nan   MPKI: 0
PSCL4 RFO       ACCESS:          0  HIT:          0  MISS:          0  HIT %:       -nan  MISS %:       -nan   MPKI: 0
PSCL4 PREFETCH  ACCESS:          0  HIT:          0  MISS:          0  HIT %:       -nan  MISS %:       -nan   MPKI: 0
PSCL4 WRITEBACK ACCESS:          0  HIT:          0  MISS:          0  HIT %:       -nan  MISS %:       -nan   MPKI: 0
PSCL3 TOTAL     ACCESS:    1053185  HIT:    1053185  MISS:          0  HIT %:        100  MISS %:          0   MPKI: 0
PSCL3 LOAD      ACCESS:          0  HIT:          0  MISS:          0  HIT %:       -nan  MISS %:       -nan   MPKI: 0
PSCL3 RFO       ACCESS:          0  HIT:          0  MISS:          0  HIT %:       -nan  MISS %:       -nan   MPKI: 0
PSCL3 PREFETCH  ACCESS:          0  HIT:          0  MISS:          0  HIT %:       -nan  MISS %:       -nan   MPKI: 0
PSCL3 WRITEBACK ACCESS:          0  HIT:          0  MISS:          0  HIT %:       -nan  MISS %:       -nan   MPKI: 0
PSCL2 TOTAL     ACCESS:    1051082  HIT:    1051067  MISS:         15  HIT %:    99.9986  MISS %:  0.0014271   MPKI: 7.4992e-05
PSCL2 LOAD      ACCESS:          0  HIT:          0  MISS:          0  HIT %:       -nan  MISS %:       -nan   MPKI: 0
PSCL2 RFO       ACCESS:          0  HIT:          0  MISS:          0  HIT %:       -nan  MISS %:       -nan   MPKI: 0
PSCL2 PREFETCH  ACCESS:          0  HIT:          0  MISS:          0  HIT %:       -nan  MISS %:       -nan   MPKI: 0
PSCL2 WRITEBACK ACCESS:          0  HIT:          0  MISS:          0  HIT %:       -nan  MISS %:       -nan   MPKI: 0
LLC TOTAL     ACCESS:     934085  HIT:     419292  MISS:     514793  HIT %:     44.888  MISS %:     55.112   MPKI: 2.57369
LLC LOAD      ACCESS:       3374  HIT:          0  MISS:       3374  HIT %:          0  MISS %:        100   MPKI: 0.0168682
LLC RFO       ACCESS:          0  HIT:          0  MISS:          0  HIT %:       -nan  MISS %:       -nan   MPKI: 0
LLC PREFETCH  ACCESS:     463165  HIT:          0  MISS:     463165  HIT %:          0  MISS %:        100   MPKI: 2.31558
LLC WRITEBACK ACCESS:     466620  HIT:     419292  MISS:      47328  HIT %:    89.8573  MISS %:    10.1427   MPKI: 0.236615

RAW hits: 0
Loads Generated: 29857467
Loads sent to L1D: 29857466
Stores Generated: 4175320
Stores sent to L1D: 4175319

CPU 1 cumulative IPC: 1.16462 instructions: 200006755 cycles: 171735978
ITLB TOTAL     ACCESS:   33203199  HIT:   33203199  MISS:          0  HIT %:        100  MISS %:          0   MPKI: 0
ITLB LOAD      ACCESS:          0  HIT:          0  MISS:          0  HIT %:       -nan  MISS %:       -nan   MPKI: 0
ITLB RFO       ACCESS:          0  HIT:          0  MISS:          0  HIT %:       -nan  MISS %:       -nan   MPKI: 0
ITLB PREFETCH  ACCESS:          0  HIT:          0  MISS:          0  HIT %:       -nan  MISS %:       -nan   MPKI: 0
ITLB WRITEBACK ACCESS:          0  HIT:          0  MISS:          0  HIT %:       -nan  MISS %:       -nan   MPKI: 0
DTLB TOTAL     ACCESS:   18109781  HIT:   18102491  MISS:       7290  HIT %:    99.9597  MISS %:  0.0402545   MPKI: 0.0364488
DTLB LOAD      ACCESS:          0  HIT:          0  MISS:          0  HIT %:       -nan  MISS %:       -nan   MPKI: 0
DTLB RFO       ACCESS:          0  HIT:          0  MISS:          0  HIT %:       -nan  MISS %:       -nan   MPKI: 0
DTLB PREFETCH  ACCESS:          0  HIT:          0  MISS:          0  HIT %:       -nan  MISS %:       -nan   MPKI: 0
DTLB WRITEBACK ACCESS:          0  HIT:          0  MISS:          0  HIT %:       -nan  MISS %:       -nan   MPKI: 0
STLB TOTAL     ACCESS:   11284527  HIT:   11277236  MISS:       7291  HIT %:    99.9354  MISS %:  0.0646106   MPKI: 0.0364538
STLB LOAD      ACCESS:          0  HIT:          0  MISS:          0  HIT %:       -nan  MISS %:       -nan   MPKI: 0
STLB RFO       ACCESS:          0  HIT:          0  MISS:          0  HIT %:       -nan  MISS %:       -nan   MPKI: 0
STLB PREFETCH  ACCESS:          0  HIT:          0  MISS:          0  HIT %:       -nan  MISS %:       -nan   MPKI: 0
STLB WRITEBACK ACCESS:          0  HIT:          0  MISS:          0  HIT %:       -nan  MISS %:       -nan   MPKI: 0
L1D TOTAL     ACCESS:   76619738  HIT:   76153240  MISS:     466498  HIT %:    99.3912  MISS %:   0.608848   MPKI: 2.33241
L1D LOAD      ACCESS:   14428996  HIT:   14421616  MISS:       7380  HIT %:    99.9489  MISS %:   0.051147   MPKI: 0.0368988
L1D RFO       ACCESS:    4174997  HIT:    4174997  MISS:          0  HIT %:        100  MISS %:          0   MPKI: 0
L1D PREFETCH  ACCESS:   58015745  HIT:   57556627  MISS:     459118  HIT %:    99.2086  MISS %:   0.791368   MPKI: 2.29551
L1D WRITEBACK ACCESS:          0  HIT:          0  MISS:          0  HIT %:       -nan  MISS %:       -nan   MPKI: 0
L1I TOTAL     ACCESS:   33203198  HIT:   33203198  MISS:          0  HIT %:        100  MISS %:          0   MPKI: 0
L1I LOAD      ACCESS:   33203198  HIT:   33203198  MISS:          0  HIT %:        100  MISS %:          0   MPKI: 0
L1I RFO       ACCESS:          0  HIT:          0  MISS:          0  HIT %:       -nan  MISS %:       -nan   MPKI: 0
L1I PREFETCH  ACCESS:          0  HIT:          0  MISS:          0  HIT %:       -nan  MISS %:       -nan   MPKI: 0
L1I WRITEBACK ACCESS:          0  HIT:          0  MISS:          0  HIT %:       -nan  MISS %:       -nan   MPKI: 0
L2C TOTAL     ACCESS:    3061370  HIT:    2386598  MISS:     674772  HIT %:    77.9585  MISS %:    22.0415   MPKI: 3.37375
L2C LOAD      ACCESS:       3373  HIT:          0  MISS:       3373  HIT %:          0  MISS %:        100   MPKI: 0.0168644
L2C RFO       ACCESS:          0  HIT:          0  MISS:          0  HIT %:       -nan  MISS %:       -nan   MPKI: 0
L2C PREFETCH  ACCESS:    1538147  HIT:    1075011  MISS:     463136  HIT %:      69.89  MISS %:      30.11   MPKI: 2.3156
L2C WRITEBACK ACCESS:     466498  HIT:     259162  MISS:     207336  HIT %:    55.5548  MISS %:    44.4452   MPKI: 1.03664
PSCL5 TOTAL     ACCESS:    1053352  HIT:    1053352  MISS:          0  HIT %:        100  MISS %:          0   MPKI: 0
PSCL5 LOAD      ACCESS:          0  HIT:          0  MISS:          0  HIT %:       -nan  MISS %:       -nan   MPKI: 0
PSCL5 RFO       ACCESS:          0  HIT:          0  MISS:          0  HIT %:       -nan  MISS %:       -nan   MPKI: 0
PSCL5 PREFETCH  ACCESS:          0  HIT:          0  MISS:          0  HIT %:       -nan  MISS %:       -nan   MPKI: 0
PSCL5 WRITEBACK ACCESS:          0  HIT:          0  MISS:          0  HIT %:       -nan  MISS %:       -nan   MPKI: 0
PSCL4 TOTAL     ACCESS:    1053352  HIT:    1053352  MISS:          0  HIT %:        100  MISS %:          0   MPKI: 0
PSCL4 LOAD      ACCESS:          0  HIT:          0  MISS:          0  HIT %:       -nan  MISS %:       -nan   MPKI: 0
PSCL4 RFO       ACCESS:          0  HIT:          0  MISS:          0  HIT %:       -nan  MISS %:       -nan   MPKI: 0
PSCL4 PREFETCH  ACCESS:          0  HIT:          0  MISS:          0  HIT %:       -nan  MISS %:       -nan   MPKI: 0
PSCL4 WRITEBACK ACCESS:          0  HIT:          0  MISS:          0  HIT %:       -nan  MISS %:       -nan   MPKI: 0
PSCL3 TOTAL     ACCESS:    1053352  HIT:    1053352  MISS:          0  HIT %:        100  MISS %:          0   MPKI: 0
PSCL3 LOAD      ACCESS:          0  HIT:          0  MISS:          0  HIT %:       -nan  MISS %:       -nan   MPKI: 0
PSCL3 RFO       ACCESS:          0  HIT:          0  MISS:          0  HIT %:       -nan  MISS %:       -nan   MPKI: 0
PSCL3 PREFETCH  ACCESS:          0  HIT:          0  MISS:          0  HIT %:       -nan  MISS %:       -nan   MPKI: 0
PSCL3 WRITEBACK ACCESS:          0  HIT:          0  MISS:          0  HIT %:       -nan  MISS %:       -nan   MPKI: 0
PSCL2 TOTAL     ACCESS:    1051229  HIT:    1051214  MISS:         15  HIT %:    99.9986  MISS %:  0.0014269   MPKI: 7.49975e-05
PSCL2 LOAD      ACCESS:          0  HIT:          0  MISS:          0  HIT %:       -nan  MISS %:       -nan   MPKI: 0
PSCL2 RFO       ACCESS:          0  HIT:          0  MISS:          0  HIT %:       -nan  MISS %:       -nan   MPKI: 0
PSCL2 PREFETCH  ACCESS:          0  HIT:          0  MISS:          0  HIT %:       -nan  MISS %:       -nan   MPKI: 0
PSCL2 WRITEBACK ACCESS:          0  HIT:          0  MISS:          0  HIT %:       -nan  MISS %:       -nan   MPKI: 0
LLC TOTAL     ACCESS:     934001  HIT:     422594  MISS:     511407  HIT %:    45.2456  MISS %:    54.7544   MPKI: 2.55695
LLC LOAD      ACCESS:       3373  HIT:          0  MISS:       3373  HIT %:          0  MISS %:        100   MPKI: 0.0168644
LLC RFO       ACCESS:          0  HIT:          0  MISS:          0  HIT %:       -nan  MISS %:       -nan   MPKI: 0
LLC PREFETCH  ACCESS:     463136  HIT:          0  MISS:     463136  HIT %:          0  MISS %:        100   MPKI: 2.3156
LLC WRITEBACK ACCESS:     466565  HIT:     422594  MISS:      43971  HIT %:    90.5756  MISS %:    9.42441   MPKI: 0.219848

RAW hits: 0
Loads Generated: 29855297
Loads sent to L1D: 29855295
Stores Generated: 4174997
Stores sent to L1D: 4174997

CPU 2 cumulative IPC: 1.16466 instructions: 200014790 cycles: 171735978
ITLB TOTAL     ACCESS:   33204512  HIT:   33204512  MISS:          0  HIT %:        100  MISS %:          0   MPKI: 0
ITLB LOAD      ACCESS:          0  HIT:          0  MISS:          0  HIT %:       -nan  MISS %:       -nan   MPKI: 0
ITLB RFO       ACCESS:          0  HIT:          0  MISS:          0  HIT %:       -nan  MISS %:       -nan   MPKI: 0
ITLB PREFETCH  ACCESS:          0  HIT:          0  MISS:          0  HIT %:       -nan  MISS %:       -nan   MPKI: 0
ITLB WRITEBACK ACCESS:          0  HIT:          0  MISS:          0  HIT %:       -nan  MISS %:       -nan   MPKI: 0
DTLB TOTAL     ACCESS:   18111264  HIT:   18103973  MISS:       7291  HIT %:    99.9597  MISS %:  0.0402567   MPKI: 0.0364523
DTLB LOAD      ACCESS:          0  HIT:          0  MISS:          0  HIT %:       -nan  MISS %:       -nan   MPKI: 0
DTLB RFO       ACCESS:          0  HIT:          0  MISS:          0  HIT %:       -nan  MISS %:       -nan   MPKI: 0
DTLB PREFETCH  ACCESS:          0  HIT:          0  MISS:          0  HIT %:       -nan  MISS %:       -nan   MPKI: 0
DTLB WRITEBACK ACCESS:          0  HIT:          0  MISS:          0  HIT %:       -nan  MISS %:       -nan   MPKI: 0
STLB TOTAL     ACCESS:   11285662  HIT:   11278371  MISS:       7291  HIT %:    99.9354  MISS %:  0.0646041   MPKI: 0.0364523
STLB LOAD      ACCESS:          0  HIT:          0  MISS:          0  HIT %:       -nan  MISS %:       -nan   MPKI: 0
STLB RFO       ACCESS:          0  HIT:          0  MISS:          0  HIT %:       -nan  MISS %:       -nan   MPKI: 0
STLB PREFETCH  ACCESS:          0  HIT:          0  MISS:          0  HIT %:       -nan  MISS %:       -nan   MPKI: 0
STLB WRITEBACK ACCESS:          0  HIT:          0  MISS:          0  HIT %:       -nan  MISS %:       -nan   MPKI: 0
L1D TOTAL     ACCESS:   76601836  HIT:   76135312  MISS:     466524  HIT %:     99.391  MISS %:   0.609025   MPKI: 2.33245
L1D LOAD      ACCESS:   14430431  HIT:   14423079  MISS:       7352  HIT %:    99.9491  MISS %:  0.0509479   MPKI: 0.0367573
L1D RFO       ACCESS:    4175168  HIT:    4175168  MISS:          0  HIT %:        100  MISS %:          0   MPKI: 0
L1D PREFETCH  ACCESS:   57996237  HIT:   57537065  MISS:     459172  HIT %:    99.2083  MISS %:   0.791727   MPKI: 2.29569
L1D WRITEBACK ACCESS:          0  HIT:          0  MISS:          0  HIT %:       -nan  MISS %:       -nan   MPKI: 0
L1I TOTAL     ACCESS:   33204511  HIT:   33204511  MISS:          0  HIT %:        100  MISS %:          0   MPKI: 0
L1I LOAD      ACCESS:   33204511  HIT:   33204511  MISS:          0  HIT %:        100  MISS %:          0   MPKI: 0
L1I RFO       ACCESS:          0  HIT:          0  MISS:          0  HIT %:       -nan  MISS %:       -nan   MPKI: 0
L1I PREFETCH  ACCESS:          0  HIT:          0  MISS:          0  HIT %:       -nan  MISS %:       -nan   MPKI: 0
L1I WRITEBACK ACCESS:          0  HIT:          0  MISS:          0  HIT %:       -nan  MISS %:       -nan   MPKI: 0
L2C TOTAL     ACCESS:    3071910  HIT:    2397658  MISS:     674252  HIT %:     78.051  MISS %:     21.949   MPKI: 3.37101
L2C LOAD      ACCESS:       3373  HIT:          0  MISS:       3373  HIT %:          0  MISS %:        100   MPKI: 0.0168638
L2C RFO       ACCESS:          0  HIT:          0  MISS:          0  HIT %:       -nan  MISS %:       -nan   MPKI: 0
L2C PREFETCH  ACCESS:    1547441  HIT:    1084290  MISS:     463151  HIT %:    70.0699  MISS %:    29.9301   MPKI: 2.31558
L2C WRITEBACK ACCESS:     466524  HIT:     259722  MISS:     206802  HIT %:    55.6717  MISS %:    44.3283   MPKI: 1.03393
PSCL5 TOTAL     ACCESS:    1054572  HIT:    1054572  MISS:          0  HIT %:        100  MISS %:          0   MPKI: 0
PSCL5 LOAD      ACCESS:          0  HIT:          0  MISS:          0  HIT %:       -nan  MISS %:       -nan   MPKI: 0
PSCL5 RFO       ACCESS:          0  HIT:          0  MISS:          0  HIT %:       -nan  MISS %:       -nan   MPKI: 0
PSCL5 PREFETCH  ACCESS:          0  HIT:          0  MISS:          0  HIT %:       -nan  MISS %:       -nan   MPKI: 0
PSCL5 WRITEBACK ACCESS:          0  HIT:          0  MISS:          0  HIT %:       -nan  MISS %:       -nan   MPKI: 0
PSCL4 TOTAL     ACCESS:    1054572  HIT:    1054572  MISS:          0  HIT %:        100  MISS %:          0   MPKI: 0
PSCL4 LOAD      ACCESS:          0  HIT:          0  MISS:          0  HIT %:       -nan  MISS %:       -nan   MPKI: 0
PSCL4 RFO       ACCESS:          0  HIT:          0  MISS:          0  HIT %:       -nan  MISS %:       -nan   MPKI: 0
PSCL4 PREFETCH  ACCESS:          0  HIT:          0  MISS:          0  HIT %:       -nan  MISS %:       -nan   MPKI: 0
PSCL4 WRITEBACK ACCESS:          0  HIT:          0  MISS:          0  HIT %:       -nan  MISS %:       -nan   MPKI: 0
PSCL3 TOTAL     ACCESS:    1054572  HIT:    1054572  MISS:          0  HIT %:        100  MISS %:          0   MPKI: 0
PSCL3 LOAD      ACCESS:          0  HIT:          0  MISS:          0  HIT %:       -nan  MISS %:       -nan   MPKI: 0
PSCL3 RFO       ACCESS:          0  HIT:          0  MISS:          0  HIT %:       -nan  MISS %:       -nan   MPKI: 0
PSCL3 PREFETCH  ACCESS:          0  HIT:          0  MISS:          0  HIT %:       -nan  MISS %:       -nan   MPKI: 0
PSCL3 WRITEBACK ACCESS:          0  HIT:          0  MISS:          0  HIT %:       -nan  MISS %:       -nan   MPKI: 0
PSCL2 TOTAL     ACCESS:    1052514  HIT:    1052499  MISS:         15  HIT %:    99.9986  MISS %: 0.00142516   MPKI: 7.49945e-05
PSCL2 LOAD      ACCESS:          0  HIT:          0  MISS:          0  HIT %:       -nan  MISS %:       -nan   MPKI: 0
PSCL2 RFO       ACCESS:          0  HIT:          0  MISS:          0  HIT %:       -nan  MISS %:       -nan   MPKI: 0
PSCL2 PREFETCH  ACCESS:          0  HIT:          0  MISS:          0  HIT %:       -nan  MISS %:       -nan   MPKI: 0
PSCL2 WRITEBACK ACCESS:          0  HIT:          0  MISS:          0  HIT %:       -nan  MISS %:       -nan   MPKI: 0
LLC TOTAL     ACCESS:     933944  HIT:     419787  MISS:     514157  HIT %:    44.9478  MISS %:    55.0522   MPKI: 2.57059
LLC LOAD      ACCESS:       3373  HIT:          0  MISS:       3373  HIT %:          0  MISS %:        100   MPKI: 0.0168638
LLC RFO       ACCESS:          0  HIT:          0  MISS:          0  HIT %:       -nan  MISS %:       -nan   MPKI: 0
LLC PREFETCH  ACCESS:     463151  HIT:          0  MISS:     463151  HIT %:          0  MISS %:        100   MPKI: 2.31558
LLC WRITEBACK ACCESS:     466494  HIT:     419783  MISS:      46711  HIT %:    89.9868  MISS %:    10.0132   MPKI: 0.233538

RAW hits: 0
Loads Generated: 29856492
Loads sent to L1D: 29856491
Stores Generated: 4175168
Stores sent to L1D: 4175168

CPU 3 cumulative IPC: 1.16458 instructions: 200000001 cycles: 171735978
ITLB TOTAL     ACCESS:   33202086  HIT:   33202086  MISS:          0  HIT %:        100  MISS %:          0   MPKI: 0
ITLB LOAD      ACCESS:          0  HIT:          0  MISS:          0  HIT %:       -nan  MISS %:       -nan   MPKI: 0
ITLB RFO       ACCESS:          0  HIT:          0  MISS:          0  HIT %:       -nan  MISS %:       -nan   MPKI: 0
ITLB PREFETCH  ACCESS:          0  HIT:          0  MISS:          0  HIT %:       -nan  MISS %:       -nan   MPKI: 0
ITLB WRITEBACK ACCESS:          0  HIT:          0  MISS:          0  HIT %:       -nan  MISS %:       -nan   MPKI: 0
DTLB TOTAL     ACCESS:   18109739  HIT:   18102450  MISS:       7289  HIT %:    99.9598  MISS %:  0.0402491   MPKI: 0.036445
DTLB LOAD      ACCESS:          0  HIT:          0  MISS:          0  HIT %:       -nan  MISS %:       -nan   MPKI: 0
DTLB RFO       ACCESS:          0  HIT:          0  MISS:          0  HIT %:       -nan  MISS %:       -nan   MPKI: 0
DTLB PREFETCH  ACCESS:          0  HIT:          0  MISS:          0  HIT %:       -nan  MISS %:       -nan   MPKI: 0
DTLB WRITEBACK ACCESS:          0  HIT:          0  MISS:          0  HIT %:       -nan  MISS %:       -nan   MPKI: 0
STLB TOTAL     ACCESS:   11284002  HIT:   11276713  MISS:       7289  HIT %:    99.9354  MISS %:  0.0645959   MPKI: 0.036445
STLB LOAD      ACCESS:          0  HIT:          0  MISS:          0  HIT %:       -nan  MISS %:       -nan   MPKI: 0
STLB RFO       ACCESS:          0  HIT:          0  MISS:          0  HIT %:       -nan  MISS %:       -nan   MPKI: 0
STLB PREFETCH  ACCESS:          0  HIT:          0  MISS:          0  HIT %:       -nan  MISS %:       -nan   MPKI: 0
STLB WRITEBACK ACCESS:          0  HIT:          0  MISS:          0  HIT %:       -nan  MISS %:       -nan   MPKI: 0
L1D TOTAL     ACCESS:   76584165  HIT:   76117684  MISS:     466481  HIT %:    99.3909  MISS %:   0.609109   MPKI: 2.3324
L1D LOAD      ACCESS:   14429161  HIT:   14421772  MISS:       7389  HIT %:    99.9488  MISS %:  0.0512088   MPKI: 0.036945
L1D RFO       ACCESS:    4174845  HIT:    4174845  MISS:          0  HIT %:        100  MISS %:          0   MPKI: 0
L1D PREFETCH  ACCESS:   57980159  HIT:   57521067  MISS:     459092  HIT %:    99.2082  MISS %:   0.791809   MPKI: 2.29546
L1D WRITEBACK ACCESS:          0  HIT:          0  MISS:          0  HIT %:       -nan  MISS %:       -nan   MPKI: 0
L1I TOTAL     ACCESS:   33202086  HIT:   33202086  MISS:          0  HIT %:        100  MISS %:          0   MPKI: 0
L1I LOAD      ACCESS:   33202086  HIT:   33202086  MISS:          0  HIT %:        100  MISS %:          0   MPKI: 0
L1I RFO       ACCESS:          0  HIT:          0  MISS:          0  HIT %:       -nan  MISS %:       -nan   MPKI: 0
L1I PREFETCH  ACCESS:          0  HIT:          0  MISS:          0  HIT %:       -nan  MISS %:       -nan   MPKI: 0
L1I WRITEBACK ACCESS:          0  HIT:          0  MISS:          0  HIT %:       -nan  MISS %:       -nan   MPKI: 0
L2C TOTAL     ACCESS:    3077570  HIT:    2403189  MISS:     674381  HIT %:    78.0872  MISS %:    21.9128   MPKI: 3.3719
L2C LOAD      ACCESS:       3372  HIT:          0  MISS:       3372  HIT %:          0  MISS %:        100   MPKI: 0.01686
L2C RFO       ACCESS:          0  HIT:          0  MISS:          0  HIT %:       -nan  MISS %:       -nan   MPKI: 0
L2C PREFETCH  ACCESS:    1553767  HIT:    1090667  MISS:     463100  HIT %:     70.195  MISS %:     29.805   MPKI: 2.3155
L2C WRITEBACK ACCESS:     466481  HIT:     259496  MISS:     206985  HIT %:    55.6284  MISS %:    44.3716   MPKI: 1.03492
PSCL5 TOTAL     ACCESS:    1053950  HIT:    1053950  MISS:          0  HIT %:        100  MISS %:          0   MPKI: 0
PSCL5 LOAD      ACCESS:          0  HIT:          0  MISS:          0  HIT %:       -nan  MISS %:       -nan   MPKI: 0
PSCL5 RFO       ACCESS:          0  HIT:          0  MISS:          0  HIT %:       -nan  MISS %:       -nan   MPKI: 0
PSCL5 PREFETCH  ACCESS:          0  HIT:          0  MISS:          0  HIT %:       -nan  MISS %:       -nan   MPKI: 0
PSCL5 WRITEBACK ACCESS:          0  HIT:          0  MISS:          0  HIT %:       -nan  MISS %:       -nan   MPKI: 0
PSCL4 TOTAL     ACCESS:    1053950  HIT:    1053950  MISS:          0  HIT %:        100  MISS %:          0   MPKI: 0
PSCL4 LOAD      ACCESS:          0  HIT:          0  MISS:          0  HIT %:       -nan  MISS %:       -nan   MPKI: 0
PSCL4 RFO       ACCESS:          0  HIT:          0  MISS:          0  HIT %:       -nan  MISS %:       -nan   MPKI: 0
PSCL4 PREFETCH  ACCESS:          0  HIT:          0  MISS:          0  HIT %:       -nan  MISS %:       -nan   MPKI: 0
PSCL4 WRITEBACK ACCESS:          0  HIT:          0  MISS:          0  HIT %:       -nan  MISS %:       -nan   MPKI: 0
PSCL3 TOTAL     ACCESS:    1053950  HIT:    1053950  MISS:          0  HIT %:        100  MISS %:          0   MPKI: 0
PSCL3 LOAD      ACCESS:          0  HIT:          0  MISS:          0  HIT %:       -nan  MISS %:       -nan   MPKI: 0
PSCL3 RFO       ACCESS:          0  HIT:          0  MISS:          0  HIT %:       -nan  MISS %:       -nan   MPKI: 0
PSCL3 PREFETCH  ACCESS:          0  HIT:          0  MISS:          0  HIT %:       -nan  MISS %:       -nan   MPKI: 0
PSCL3 WRITEBACK ACCESS:          0  HIT:          0  MISS:          0  HIT %:       -nan  MISS %:       -nan   MPKI: 0
PSCL2 TOTAL     ACCESS:    1051840  HIT:    1051825  MISS:         15  HIT %:    99.9986  MISS %: 0.00142607   MPKI: 7.5e-05
PSCL2 LOAD      ACCESS:          0  HIT:          0  MISS:          0  HIT %:       -nan  MISS %:       -nan   MPKI: 0
PSCL2 RFO       ACCESS:          0  HIT:          0  MISS:          0  HIT %:       -nan  MISS %:       -nan   MPKI: 0
PSCL2 PREFETCH  ACCESS:          0  HIT:          0  MISS:          0  HIT %:       -nan  MISS %:       -nan   MPKI: 0
PSCL2 WRITEBACK ACCESS:          0  HIT:          0  MISS:          0  HIT %:       -nan  MISS %:       -nan   MPKI: 0
LLC TOTAL     ACCESS:     933881  HIT:     419067  MISS:     514814  HIT %:    44.8737  MISS %:    55.1263   MPKI: 2.57407
LLC LOAD      ACCESS:       3372  HIT:          0  MISS:       3372  HIT %:          0  MISS %:        100   MPKI: 0.01686
LLC RFO       ACCESS:          0  HIT:          0  MISS:          0  HIT %:       -nan  MISS %:       -nan   MPKI: 0
LLC PREFETCH  ACCESS:     463100  HIT:          0  MISS:     463100  HIT %:          0  MISS %:        100   MPKI: 2.3155
LLC WRITEBACK ACCESS:     466485  HIT:     419067  MISS:      47418  HIT %:     89.835  MISS %:     10.165   MPKI: 0.23709

RAW hits: 0
Loads Generated: 29854296
Loads sent to L1D: 29854296
Stores Generated: 4174846
Stores sent to L1D: 4174845

Region of Interest Statistics

CPU 0 cumulative IPC: 1.1647 instructions: 200000001 cycles: 171718197
ITLB TOTAL     ACCESS:   33202052  HIT:   33202052  MISS:          0  HIT %:        100  MISS %:          0   MPKI: 0
ITLB LOAD TRANSLATION ACCESS:   33202052  HIT:   33202052  MISS:          0  HIT %:        100  MISS %:          0   MPKI: 0
ITLB PREFETCH  REQUESTED:          0  ISSUED:          0  USEFUL:          0  USELESS:          0
ITLB USEFUL LOAD PREFETCHES:          0 PREFETCH ISSUED TO LOWER LEVEL:          0  ACCURACY: -nan
ITLB TIMELY PREFETCHES:          0 LATE PREFETCHES: 0 DROPPED PREFETCHES: 0
ITLB PREFETCHES SAME FILL-ORIGIN LEVEL: 0 DIFFERENT FILL-ORIGIN LEVEL: 0
ITLB AVERAGE MISS LATENCY: -nan cycles
ITLB RQ	ACCESS:   33205587	FORWARD:          0	MERGED:          0	TO_CACHE:   33205587

DTLB TOTAL     ACCESS:   18109016  HIT:   18101726  MISS:       7290  HIT %:    99.9597  MISS %:  0.0402562   MPKI: 0.03645
DTLB LOAD TRANSLATION ACCESS:   18109016  HIT:   18101726  MISS:       7290  HIT %:    99.9597  MISS %:  0.0402562   MPKI: 0.03645
DTLB PREFETCH  REQUESTED:          0  ISSUED:          0  USEFUL:          0  USELESS:          0
DTLB USEFUL LOAD PREFETCHES:          0 PREFETCH ISSUED TO LOWER LEVEL:          0  ACCURACY: -nan
DTLB TIMELY PREFETCHES:          0 LATE PREFETCHES: 0 DROPPED PREFETCHES: 0
DTLB PREFETCHES SAME FILL-ORIGIN LEVEL: 0 DIFFERENT FILL-ORIGIN LEVEL: 0
DTLB AVERAGE MISS LATENCY: 119.838 cycles
DTLB RQ	ACCESS:   18647280	FORWARD:          0	MERGED:     536353	TO_CACHE:   18110927

STLB TOTAL     ACCESS:   11284300  HIT:   11277010  MISS:       7290  HIT %:    99.9354  MISS %:   0.064603   MPKI: 0.03645
STLB LOAD TRANSLATION ACCESS:       7290  HIT:          0  MISS:       7290  HIT %:          0  MISS %:        100   MPKI: 0.03645
STLB TRANSLATION FROM L1D PREFETCHER ACCESS:   11277010  HIT:   11277010  MISS:          0  HIT %:        100  MISS %:          0   MPKI: 0
STLB PREFETCH  REQUESTED:          0  ISSUED:          0  USEFUL:          1  USELESS:          0
STLB USEFUL LOAD PREFETCHES:          1 PREFETCH ISSUED TO LOWER LEVEL:          0  ACCURACY: inf
STLB TIMELY PREFETCHES:          1 LATE PREFETCHES: 1540 DROPPED PREFETCHES: 1044354
STLB PREFETCHES SAME FILL-ORIGIN LEVEL: 0 DIFFERENT FILL-ORIGIN LEVEL: 0
STLB AVERAGE MISS LATENCY: 108.567 cycles
STLB RQ	ACCESS:   66409853	FORWARD:          0	MERGED:   54010811	TO_CACHE:   12399042

STLB Hit, L1D data hit: 0
STLB Hit, L2C data hit: 0
STLB Hit, LLC data hit: 0
STLB Hit, LLC data miss: 0
STLB STLB hints to L2: 0
L1D TOTAL     ACCESS:   76619035  HIT:   76152561  MISS:     466474  HIT %:    99.3912  MISS %:   0.608823   MPKI: 2.33237
L1D LOAD      ACCESS:   14428781  HIT:   14421438  MISS:       7343  HIT %:    99.9491  MISS %:  0.0508913   MPKI: 0.036715
L1D RFO       ACCESS:    4174845  HIT:    4174845  MISS:          0  HIT %:        100  MISS %:          0   MPKI: 0
L1D PREFETCH  ACCESS:   58015409  HIT:   57556278  MISS:     459131  HIT %:    99.2086  MISS %:   0.791395   MPKI: 2.29565
L1D PREFETCH  REQUESTED:  178128271  ISSUED:  178128191  USEFUL:     459180  USELESS:          0
L1D USEFUL LOAD PREFETCHES:     459180 PREFETCH ISSUED TO LOWER LEVEL:    2436599  ACCURACY: 18.8451
L1D TIMELY PREFETCHES:     459180 LATE PREFETCHES: 3969 DROPPED PREFETCHES: 2982703
L1D PREFETCHES SAME FILL-ORIGIN LEVEL: 463165 DIFFERENT FILL-ORIGIN LEVEL: 1973434
L1D AVERAGE MISS LATENCY: 183.045 cycles
L1D RQ	ACCESS:   29857466	FORWARD:          0	MERGED:   15385505	TO_CACHE:   14471961
L1D WQ	ACCESS:    4175319	FORWARD:          0	MERGED:          0	TO_CACHE:    4175319
L1D PQ	ACCESS:  111725629	FORWARD:          0	MERGED:   45323067	TO_CACHE:   66402562

L1D UNIQUE REGIONS ACCESSED: 0
L1D REGIONS CONFLICTS: 0
L1D Cross Page Prefetch Requests: 14769168
L1D Same Page Prefetch Requests: 155031664
L1D ROI Sum of L1D PQ occupancy: 867378712
L1D PREFETCHES PUSHED FROM L2C: 0
L1I TOTAL     ACCESS:   33202052  HIT:   33202052  MISS:          0  HIT %:        100  MISS %:          0   MPKI: 0
L1I LOAD      ACCESS:   33202052  HIT:   33202052  MISS:          0  HIT %:        100  MISS %:          0   MPKI: 0
L1I PREFETCH  REQUESTED:          0  ISSUED:          0  USEFUL:          0  USELESS:          0
L1I USEFUL LOAD PREFETCHES:          0 PREFETCH ISSUED TO LOWER LEVEL:          0  ACCURACY: -nan
L1I TIMELY PREFETCHES:          0 LATE PREFETCHES: 0 DROPPED PREFETCHES: 0
L1I PREFETCHES SAME FILL-ORIGIN LEVEL: 0 DIFFERENT FILL-ORIGIN LEVEL: 0
L1I AVERAGE MISS LATENCY: -nan cycles
L1I RQ	ACCESS:   80076608	FORWARD:          0	MERGED:   46871021	TO_CACHE:   33205587

BTB TOTAL     ACCESS:   59708646  HIT:   59708645  MISS:          1  HIT %:        100  MISS %: 1.6748e-06   MPKI: 5e-06
BTB BRANCH_DIRECT_JUMP	ACCESS:          0  HIT:          0  MISS:          0
BTB BRANCH_INDIRECT	ACCESS:          0  HIT:          0  MISS:          0
BTB BRANCH_CONDITIONAL	ACCESS:   59708646  HIT:   59708645  MISS:          1
BTB BRANCH_DIRECT_CALL	ACCESS:          0  HIT:          0  MISS:          0
BTB BRANCH_INDIRECT_CALL	ACCESS:          0  HIT:          0  MISS:          0
BTB BRANCH_RETURN	ACCESS:          0  HIT:          0  MISS:          0
BTB BRANCH_OTHER ACCESS:          0  HIT:          0  MISS:          0

L2C TOTAL     ACCESS:    3063656  HIT:    2388799  MISS:     674857  HIT %:    77.9722  MISS %:    22.0278   MPKI: 3.37428
L2C LOAD      ACCESS:       3374  HIT:          0  MISS:       3374  HIT %:          0  MISS %:        100   MPKI: 0.01687
L2C DATA LOAD MPKI: 0.01687
L2C INSTRUCTION LOAD MPKI: 0
L2C PREFETCH  ACCESS:    1540625  HIT:    1077525  MISS:     463100  HIT %:    69.9408  MISS %:    30.0592   MPKI: 2.3155
L2C DATA PREFETCH MPKI: 2.3155
L2C INSTRUCTION PREFETCH MPKI: 0
L2C WRITEBACK ACCESS:     466473  HIT:     259016  MISS:     207457  HIT %:    55.5265  MISS %:    44.4735   MPKI: 1.03728
L2C LOAD TRANSLATION ACCESS:       7290  HIT:       7289  MISS:          1  HIT %:    99.9863  MISS %:  0.0137174   MPKI: 5e-06
L2C TRANSLATION FROM L1D PREFETCHER ACCESS:    1045894  HIT:    1044969  MISS:        925  HIT %:    99.9116  MISS %:  0.0884411   MPKI: 0.004625
L2C PREFETCH  REQUESTED:          0  ISSUED:          0  USEFUL:        925  USELESS:     462739
L2C USEFUL LOAD PREFETCHES:        925 PREFETCH ISSUED TO LOWER LEVEL:     463165  ACCURACY: 0.199713
L2C TIMELY PREFETCHES:        925 LATE PREFETCHES: 0 DROPPED PREFETCHES: 0
L2C PREFETCHES SAME FILL-ORIGIN LEVEL: 93620 DIFFERENT FILL-ORIGIN LEVEL: 0
L2C AVERAGE MISS LATENCY: 148.23 cycles
L2C RQ	ACCESS:    1056559	FORWARD:          0	MERGED:          0	TO_CACHE:    1056559
L2C WQ	ACCESS:     466539	FORWARD:          0	MERGED:          0	TO_CACHE:     466539
L2C PQ	ACCESS:    2436599	FORWARD:          0	MERGED:        603	TO_CACHE:    2435996

L2C Instructions Evicting Data 0
L2C Translations Evicting Data 925
L2C Data Evicting Data 465808
L2C Instructions Evicting Instructions 0
L2C Translations Evicting Instructions 0
L2C Data Evicting Instructions 0
L2C Instructions Evicting Translations 0
L2C Translations Evicting Translations 1
L2C Data Evicting Translations 731
L2C Dense regions hint from L2: 0
PSCL5 TOTAL     ACCESS:    1053184  HIT:    1053184  MISS:          0  HIT %:        100  MISS %:          0   MPKI: 0
PSCL5 LOAD TRANSLATION ACCESS:       7290  HIT:       7290  MISS:          0  HIT %:        100  MISS %:          0   MPKI: 0
PSCL5 TRANSLATION FROM L1D PREFETCHER ACCESS:    1045894  HIT:    1045894  MISS:          0  HIT %:        100  MISS %:          0   MPKI: 0
PSCL5 PREFETCH  REQUESTED:          0  ISSUED:          0  USEFUL:          0  USELESS:          0
PSCL5 USEFUL LOAD PREFETCHES:          0 PREFETCH ISSUED TO LOWER LEVEL:          0  ACCURACY: -nan
PSCL5 TIMELY PREFETCHES:          0 LATE PREFETCHES: 0 DROPPED PREFETCHES: 0
PSCL5 PREFETCHES SAME FILL-ORIGIN LEVEL: 0 DIFFERENT FILL-ORIGIN LEVEL: 0

PSCL4 TOTAL     ACCESS:    1053184  HIT:    1053184  MISS:          0  HIT %:        100  MISS %:          0   MPKI: 0
PSCL4 LOAD TRANSLATION ACCESS:       7290  HIT:       7290  MISS:          0  HIT %:        100  MISS %:          0   MPKI: 0
PSCL4 TRANSLATION FROM L1D PREFETCHER ACCESS:    1045894  HIT:    1045894  MISS:          0  HIT %:        100  MISS %:          0   MPKI: 0
PSCL4 PREFETCH  REQUESTED:          0  ISSUED:          0  USEFUL:          0  USELESS:          0
PSCL4 USEFUL LOAD PREFETCHES:          0 PREFETCH ISSUED TO LOWER LEVEL:          0  ACCURACY: -nan
PSCL4 TIMELY PREFETCHES:          0 LATE PREFETCHES: 0 DROPPED PREFETCHES: 0
PSCL4 PREFETCHES SAME FILL-ORIGIN LEVEL: 0 DIFFERENT FILL-ORIGIN LEVEL: 0

PSCL3 TOTAL     ACCESS:    1053184  HIT:    1053184  MISS:          0  HIT %:        100  MISS %:          0   MPKI: 0
PSCL3 LOAD TRANSLATION ACCESS:       7290  HIT:       7290  MISS:          0  HIT %:        100  MISS %:          0   MPKI: 0
PSCL3 TRANSLATION FROM L1D PREFETCHER ACCESS:    1045894  HIT:    1045894  MISS:          0  HIT %:        100  MISS %:          0   MPKI: 0
PSCL3 PREFETCH  REQUESTED:          0  ISSUED:          0  USEFUL:          0  USELESS:          0
PSCL3 USEFUL LOAD PREFETCHES:          0 PREFETCH ISSUED TO LOWER LEVEL:          0  ACCURACY: -nan
PSCL3 TIMELY PREFETCHES:          0 LATE PREFETCHES: 0 DROPPED PREFETCHES: 0
PSCL3 PREFETCHES SAME FILL-ORIGIN LEVEL: 0 DIFFERENT FILL-ORIGIN LEVEL: 0

PSCL2 TOTAL     ACCESS:    1051081  HIT:    1051066  MISS:         15  HIT %:    99.9986  MISS %:  0.0014271   MPKI: 7.5e-05
PSCL2 LOAD TRANSLATION ACCESS:       7290  HIT:       7275  MISS:         15  HIT %:    99.7942  MISS %:   0.205761   MPKI: 7.5e-05
PSCL2 TRANSLATION FROM L1D PREFETCHER ACCESS:    1043791  HIT:    1043791  MISS:          0  HIT %:        100  MISS %:          0   MPKI: 0
PSCL2 PREFETCH  REQUESTED:          0  ISSUED:          0  USEFUL:          0  USELESS:          0
PSCL2 USEFUL LOAD PREFETCHES:          0 PREFETCH ISSUED TO LOWER LEVEL:          0  ACCURACY: -nan
PSCL2 TIMELY PREFETCHES:          0 LATE PREFETCHES: 0 DROPPED PREFETCHES: 0
PSCL2 PREFETCHES SAME FILL-ORIGIN LEVEL: 0 DIFFERENT FILL-ORIGIN LEVEL: 0

LLC TOTAL     ACCESS:     933962  HIT:     419231  MISS:     514731  HIT %:    44.8874  MISS %:    55.1126   MPKI: 2.57365
LLC LOAD      ACCESS:       3374  HIT:          0  MISS:       3374  HIT %:          0  MISS %:        100   MPKI: 0.01687
LLC PREFETCH  ACCESS:     463104  HIT:          0  MISS:     463104  HIT %:          0  MISS %:        100   MPKI: 2.31552
LLC WRITEBACK ACCESS:     466558  HIT:     419231  MISS:      47327  HIT %:    89.8561  MISS %:    10.1439   MPKI: 0.236635
LLC LOAD TRANSLATION ACCESS:          1  HIT:          0  MISS:          1  HIT %:          0  MISS %:        100   MPKI: 5e-06
LLC TRANSLATION FROM L1D PREFETCHER ACCESS:        925  HIT:          0  MISS:        925  HIT %:          0  MISS %:        100   MPKI: 0.004625
LLC PREFETCH  REQUESTED:          0  ISSUED:          0  USEFUL:          0  USELESS:    1861183
LLC USEFUL LOAD PREFETCHES:          0 PREFETCH ISSUED TO LOWER LEVEL:    1852553  ACCURACY: 0
LLC TIMELY PREFETCHES:          0 LATE PREFETCHES: 0 DROPPED PREFETCHES: 0
LLC PREFETCHES SAME FILL-ORIGIN LEVEL: 0 DIFFERENT FILL-ORIGIN LEVEL: 0
LLC AVERAGE MISS LATENCY: 669.822 cycles
LLC RQ	ACCESS:      17195	FORWARD:          0	MERGED:          0	TO_CACHE:      17195
LLC WQ	ACCESS:    1866164	FORWARD:          0	MERGED:          0	TO_CACHE:    1866164
LLC PQ	ACCESS:    1852553	FORWARD:          0	MERGED:          0	TO_CACHE:    1852553

LLC Dense regions hint to LLC: 0

RAW hits: 0
Loads Generated: 29854313
Loads sent to L1D: 29854313
Stores Generated: 4174849
Stores sent to L1D: 4174846
Major fault: 0 Minor fault: 9127
Allocated PAGES: 36508

CPU 1 cumulative IPC: 1.16462 instructions: 200000000 cycles: 171730431
ITLB TOTAL     ACCESS:   33202102  HIT:   33202102  MISS:          0  HIT %:        100  MISS %:          0   MPKI: 0
ITLB LOAD TRANSLATION ACCESS:   33202102  HIT:   33202102  MISS:          0  HIT %:        100  MISS %:          0   MPKI: 0
ITLB PREFETCH  REQUESTED:          0  ISSUED:          0  USEFUL:          0  USELESS:          0
ITLB USEFUL LOAD PREFETCHES:          0 PREFETCH ISSUED TO LOWER LEVEL:          0  ACCURACY: -nan
ITLB TIMELY PREFETCHES:          0 LATE PREFETCHES: 0 DROPPED PREFETCHES: 0
ITLB PREFETCHES SAME FILL-ORIGIN LEVEL: 0 DIFFERENT FILL-ORIGIN LEVEL: 0
ITLB AVERAGE MISS LATENCY: -nan cycles
ITLB RQ	ACCESS:   33203198	FORWARD:          0	MERGED:          0	TO_CACHE:   33203198

DTLB TOTAL     ACCESS:   18109181  HIT:   18101891  MISS:       7290  HIT %:    99.9597  MISS %:  0.0402558   MPKI: 0.03645
DTLB LOAD TRANSLATION ACCESS:   18109181  HIT:   18101891  MISS:       7290  HIT %:    99.9597  MISS %:  0.0402558   MPKI: 0.03645
DTLB PREFETCH  REQUESTED:          0  ISSUED:          0  USEFUL:          0  USELESS:          0
DTLB USEFUL LOAD PREFETCHES:          0 PREFETCH ISSUED TO LOWER LEVEL:          0  ACCURACY: -nan
DTLB TIMELY PREFETCHES:          0 LATE PREFETCHES: 0 DROPPED PREFETCHES: 0
DTLB PREFETCHES SAME FILL-ORIGIN LEVEL: 0 DIFFERENT FILL-ORIGIN LEVEL: 0
DTLB AVERAGE MISS LATENCY: 119.834 cycles
DTLB RQ	ACCESS:   18645856	FORWARD:          0	MERGED:     536075	TO_CACHE:   18109781

STLB TOTAL     ACCESS:   11283881  HIT:   11276591  MISS:       7290  HIT %:    99.9354  MISS %:  0.0646054   MPKI: 0.03645
STLB LOAD TRANSLATION ACCESS:       7290  HIT:          0  MISS:       7290  HIT %:          0  MISS %:        100   MPKI: 0.03645
STLB TRANSLATION FROM L1D PREFETCHER ACCESS:   11276591  HIT:   11276591  MISS:          0  HIT %:        100  MISS %:          0   MPKI: 0
STLB PREFETCH  REQUESTED:          0  ISSUED:          0  USEFUL:          1  USELESS:          0
STLB USEFUL LOAD PREFETCHES:          1 PREFETCH ISSUED TO LOWER LEVEL:          0  ACCURACY: inf
STLB TIMELY PREFETCHES:          1 LATE PREFETCHES: 1538 DROPPED PREFETCHES: 1044523
STLB PREFETCHES SAME FILL-ORIGIN LEVEL: 0 DIFFERENT FILL-ORIGIN LEVEL: 0
STLB AVERAGE MISS LATENCY: 108.546 cycles
STLB RQ	ACCESS:   66408679	FORWARD:          0	MERGED:   54010603	TO_CACHE:   12398076

STLB Hit, L1D data hit: 0
STLB Hit, L2C data hit: 0
STLB Hit, LLC data hit: 0
STLB Hit, LLC data miss: 0
STLB STLB hints to L2: 0
L1D TOTAL     ACCESS:   76617368  HIT:   76150889  MISS:     466479  HIT %:    99.3912  MISS %:   0.608842   MPKI: 2.33239
L1D LOAD      ACCESS:   14428522  HIT:   14421142  MISS:       7380  HIT %:    99.9489  MISS %:  0.0511487   MPKI: 0.0369
L1D RFO       ACCESS:    4174845  HIT:    4174845  MISS:          0  HIT %:        100  MISS %:          0   MPKI: 0
L1D PREFETCH  ACCESS:   58014001  HIT:   57554902  MISS:     459099  HIT %:    99.2086  MISS %:   0.791359   MPKI: 2.29549
L1D PREFETCH  REQUESTED:  178130713  ISSUED:  178130697  USEFUL:     459110  USELESS:          0
L1D USEFUL LOAD PREFETCHES:     459110 PREFETCH ISSUED TO LOWER LEVEL:    2427828  ACCURACY: 18.9103
L1D TIMELY PREFETCHES:     459110 LATE PREFETCHES: 4007 DROPPED PREFETCHES: 2982680
L1D PREFETCHES SAME FILL-ORIGIN LEVEL: 463126 DIFFERENT FILL-ORIGIN LEVEL: 1964702
L1D AVERAGE MISS LATENCY: 183.758 cycles
L1D RQ	ACCESS:   29855295	FORWARD:          0	MERGED:   15384436	TO_CACHE:   14470859
L1D WQ	ACCESS:    4174997	FORWARD:          0	MERGED:          0	TO_CACHE:    4174997
L1D PQ	ACCESS:  111729308	FORWARD:          0	MERGED:   45327919	TO_CACHE:   66401389

L1D UNIQUE REGIONS ACCESSED: 0
L1D REGIONS CONFLICTS: 0
L1D Cross Page Prefetch Requests: 14768303
L1D Same Page Prefetch Requests: 154394100
L1D ROI Sum of L1D PQ occupancy: 867420277
L1D PREFETCHES PUSHED FROM L2C: 0
L1I TOTAL     ACCESS:   33202102  HIT:   33202102  MISS:          0  HIT %:        100  MISS %:          0   MPKI: 0
L1I LOAD      ACCESS:   33202102  HIT:   33202102  MISS:          0  HIT %:        100  MISS %:          0   MPKI: 0
L1I PREFETCH  REQUESTED:          0  ISSUED:          0  USEFUL:          0  USELESS:          0
L1I USEFUL LOAD PREFETCHES:          0 PREFETCH ISSUED TO LOWER LEVEL:          0  ACCURACY: -nan
L1I TIMELY PREFETCHES:          0 LATE PREFETCHES: 0 DROPPED PREFETCHES: 0
L1I PREFETCHES SAME FILL-ORIGIN LEVEL: 0 DIFFERENT FILL-ORIGIN LEVEL: 0
L1I AVERAGE MISS LATENCY: -nan cycles
L1I RQ	ACCESS:   80070910	FORWARD:          0	MERGED:   46867712	TO_CACHE:   33203198

BTB TOTAL     ACCESS:   59708646  HIT:   59708645  MISS:          1  HIT %:        100  MISS %: 1.6748e-06   MPKI: 5e-06
BTB BRANCH_DIRECT_JUMP	ACCESS:          0  HIT:          0  MISS:          0
BTB BRANCH_INDIRECT	ACCESS:          0  HIT:          0  MISS:          0
BTB BRANCH_CONDITIONAL	ACCESS:   59708646  HIT:   59708645  MISS:          1
BTB BRANCH_DIRECT_CALL	ACCESS:          0  HIT:          0  MISS:          0
BTB BRANCH_INDIRECT_CALL	ACCESS:          0  HIT:          0  MISS:          0
BTB BRANCH_RETURN	ACCESS:          0  HIT:          0  MISS:          0
BTB BRANCH_OTHER ACCESS:          0  HIT:          0  MISS:          0

L2C TOTAL     ACCESS:    3061048  HIT:    2386304  MISS:     674744  HIT %:    77.9571  MISS %:    22.0429   MPKI: 3.37372
L2C LOAD      ACCESS:       3373  HIT:          0  MISS:       3373  HIT %:          0  MISS %:        100   MPKI: 0.016865
L2C DATA LOAD MPKI: 0.016865
L2C INSTRUCTION LOAD MPKI: 0
L2C PREFETCH  ACCESS:    1537847  HIT:    1074733  MISS:     463114  HIT %:    69.8856  MISS %:    30.1144   MPKI: 2.31557
L2C DATA PREFETCH MPKI: 2.31557
L2C INSTRUCTION PREFETCH MPKI: 0
L2C WRITEBACK ACCESS:     466477  HIT:     259147  MISS:     207330  HIT %:    55.5541  MISS %:    44.4459   MPKI: 1.03665
L2C LOAD TRANSLATION ACCESS:       7290  HIT:       7289  MISS:          1  HIT %:    99.9863  MISS %:  0.0137174   MPKI: 5e-06
L2C TRANSLATION FROM L1D PREFETCHER ACCESS:    1046061  HIT:    1045135  MISS:        926  HIT %:    99.9115  MISS %:  0.0885226   MPKI: 0.00463
L2C PREFETCH  REQUESTED:          0  ISSUED:          0  USEFUL:        926  USELESS:     463247
L2C USEFUL LOAD PREFETCHES:        926 PREFETCH ISSUED TO LOWER LEVEL:     463136  ACCURACY: 0.199941
L2C TIMELY PREFETCHES:        926 LATE PREFETCHES: 0 DROPPED PREFETCHES: 0
L2C PREFETCHES SAME FILL-ORIGIN LEVEL: 93372 DIFFERENT FILL-ORIGIN LEVEL: 0
L2C AVERAGE MISS LATENCY: 148.59 cycles
L2C RQ	ACCESS:    1056725	FORWARD:          0	MERGED:          0	TO_CACHE:    1056725
L2C WQ	ACCESS:     466498	FORWARD:          0	MERGED:          0	TO_CACHE:     466498
L2C PQ	ACCESS:    2427828	FORWARD:          0	MERGED:        567	TO_CACHE:    2427261

L2C Instructions Evicting Data 0
L2C Translations Evicting Data 917
L2C Data Evicting Data 465698
L2C Instructions Evicting Instructions 0
L2C Translations Evicting Instructions 0
L2C Data Evicting Instructions 0
L2C Instructions Evicting Translations 0
L2C Translations Evicting Translations 10
L2C Data Evicting Translations 811
L2C Dense regions hint from L2: 0
PSCL5 TOTAL     ACCESS:    1053351  HIT:    1053351  MISS:          0  HIT %:        100  MISS %:          0   MPKI: 0
PSCL5 LOAD TRANSLATION ACCESS:       7290  HIT:       7290  MISS:          0  HIT %:        100  MISS %:          0   MPKI: 0
PSCL5 TRANSLATION FROM L1D PREFETCHER ACCESS:    1046061  HIT:    1046061  MISS:          0  HIT %:        100  MISS %:          0   MPKI: 0
PSCL5 PREFETCH  REQUESTED:          0  ISSUED:          0  USEFUL:          0  USELESS:          0
PSCL5 USEFUL LOAD PREFETCHES:          0 PREFETCH ISSUED TO LOWER LEVEL:          0  ACCURACY: -nan
PSCL5 TIMELY PREFETCHES:          0 LATE PREFETCHES: 0 DROPPED PREFETCHES: 0
PSCL5 PREFETCHES SAME FILL-ORIGIN LEVEL: 0 DIFFERENT FILL-ORIGIN LEVEL: 0

PSCL4 TOTAL     ACCESS:    1053351  HIT:    1053351  MISS:          0  HIT %:        100  MISS %:          0   MPKI: 0
PSCL4 LOAD TRANSLATION ACCESS:       7290  HIT:       7290  MISS:          0  HIT %:        100  MISS %:          0   MPKI: 0
PSCL4 TRANSLATION FROM L1D PREFETCHER ACCESS:    1046061  HIT:    1046061  MISS:          0  HIT %:        100  MISS %:          0   MPKI: 0
PSCL4 PREFETCH  REQUESTED:          0  ISSUED:          0  USEFUL:          0  USELESS:          0
PSCL4 USEFUL LOAD PREFETCHES:          0 PREFETCH ISSUED TO LOWER LEVEL:          0  ACCURACY: -nan
PSCL4 TIMELY PREFETCHES:          0 LATE PREFETCHES: 0 DROPPED PREFETCHES: 0
PSCL4 PREFETCHES SAME FILL-ORIGIN LEVEL: 0 DIFFERENT FILL-ORIGIN LEVEL: 0

PSCL3 TOTAL     ACCESS:    1053351  HIT:    1053351  MISS:          0  HIT %:        100  MISS %:          0   MPKI: 0
PSCL3 LOAD TRANSLATION ACCESS:       7290  HIT:       7290  MISS:          0  HIT %:        100  MISS %:          0   MPKI: 0
PSCL3 TRANSLATION FROM L1D PREFETCHER ACCESS:    1046061  HIT:    1046061  MISS:          0  HIT %:        100  MISS %:          0   MPKI: 0
PSCL3 PREFETCH  REQUESTED:          0  ISSUED:          0  USEFUL:          0  USELESS:          0
PSCL3 USEFUL LOAD PREFETCHES:          0 PREFETCH ISSUED TO LOWER LEVEL:          0  ACCURACY: -nan
PSCL3 TIMELY PREFETCHES:          0 LATE PREFETCHES: 0 DROPPED PREFETCHES: 0
PSCL3 PREFETCHES SAME FILL-ORIGIN LEVEL: 0 DIFFERENT FILL-ORIGIN LEVEL: 0

PSCL2 TOTAL     ACCESS:    1051228  HIT:    1051213  MISS:         15  HIT %:    99.9986  MISS %:  0.0014269   MPKI: 7.5e-05
PSCL2 LOAD TRANSLATION ACCESS:       7290  HIT:       7275  MISS:         15  HIT %:    99.7942  MISS %:   0.205761   MPKI: 7.5e-05
PSCL2 TRANSLATION FROM L1D PREFETCHER ACCESS:    1043938  HIT:    1043938  MISS:          0  HIT %:        100  MISS %:          0   MPKI: 0
PSCL2 PREFETCH  REQUESTED:          0  ISSUED:          0  USEFUL:          0  USELESS:          0
PSCL2 USEFUL LOAD PREFETCHES:          0 PREFETCH ISSUED TO LOWER LEVEL:          0  ACCURACY: -nan
PSCL2 TIMELY PREFETCHES:          0 LATE PREFETCHES: 0 DROPPED PREFETCHES: 0
PSCL2 PREFETCHES SAME FILL-ORIGIN LEVEL: 0 DIFFERENT FILL-ORIGIN LEVEL: 0

LLC TOTAL     ACCESS:     933956  HIT:     422568  MISS:     511388  HIT %:     45.245  MISS %:     54.755   MPKI: 2.55694
LLC LOAD      ACCESS:       3373  HIT:          0  MISS:       3373  HIT %:          0  MISS %:        100   MPKI: 0.016865
LLC PREFETCH  ACCESS:     463117  HIT:          0  MISS:     463117  HIT %:          0  MISS %:        100   MPKI: 2.31559
LLC WRITEBACK ACCESS:     466539  HIT:     422568  MISS:      43971  HIT %:    90.5751  MISS %:    9.42494   MPKI: 0.219855
LLC LOAD TRANSLATION ACCESS:          1  HIT:          0  MISS:          1  HIT %:          0  MISS %:        100   MPKI: 5e-06
LLC TRANSLATION FROM L1D PREFETCHER ACCESS:        926  HIT:          0  MISS:        926  HIT %:          0  MISS %:        100   MPKI: 0.00463
LLC PREFETCH  REQUESTED:          0  ISSUED:          0  USEFUL:          0  USELESS:    1861183
LLC USEFUL LOAD PREFETCHES:          0 PREFETCH ISSUED TO LOWER LEVEL:    1852553  ACCURACY: 0
LLC TIMELY PREFETCHES:          0 LATE PREFETCHES: 0 DROPPED PREFETCHES: 0
LLC PREFETCHES SAME FILL-ORIGIN LEVEL: 0 DIFFERENT FILL-ORIGIN LEVEL: 0
LLC AVERAGE MISS LATENCY: 674.201 cycles
LLC RQ	ACCESS:      17195	FORWARD:          0	MERGED:          0	TO_CACHE:      17195
LLC WQ	ACCESS:    1866164	FORWARD:          0	MERGED:          0	TO_CACHE:    1866164
LLC PQ	ACCESS:    1852553	FORWARD:          0	MERGED:          0	TO_CACHE:    1852553

LLC Dense regions hint to LLC: 0

RAW hits: 0
Loads Generated: 29854313
Loads sent to L1D: 29854313
Stores Generated: 4174849
Stores sent to L1D: 4174845
Major fault: 0 Minor fault: 9127
Allocated PAGES: 36508

CPU 2 cumulative IPC: 1.16466 instructions: 200000003 cycles: 171723743
ITLB TOTAL     ACCESS:   33202077  HIT:   33202077  MISS:          0  HIT %:        100  MISS %:          0   MPKI: 0
ITLB LOAD TRANSLATION ACCESS:   33202077  HIT:   33202077  MISS:          0  HIT %:        100  MISS %:          0   MPKI: 0
ITLB PREFETCH  REQUESTED:          0  ISSUED:          0  USEFUL:          0  USELESS:          0
ITLB USEFUL LOAD PREFETCHES:          0 PREFETCH ISSUED TO LOWER LEVEL:          0  ACCURACY: -nan
ITLB TIMELY PREFETCHES:          0 LATE PREFETCHES: 0 DROPPED PREFETCHES: 0
ITLB PREFETCHES SAME FILL-ORIGIN LEVEL: 0 DIFFERENT FILL-ORIGIN LEVEL: 0
ITLB AVERAGE MISS LATENCY: -nan cycles
ITLB RQ	ACCESS:   33204512	FORWARD:          0	MERGED:          0	TO_CACHE:   33204512

DTLB TOTAL     ACCESS:   18109945  HIT:   18102655  MISS:       7290  HIT %:    99.9597  MISS %:  0.0402541   MPKI: 0.03645
DTLB LOAD TRANSLATION ACCESS:   18109945  HIT:   18102655  MISS:       7290  HIT %:    99.9597  MISS %:  0.0402541   MPKI: 0.03645
DTLB PREFETCH  REQUESTED:          0  ISSUED:          0  USEFUL:          0  USELESS:          0
DTLB USEFUL LOAD PREFETCHES:          0 PREFETCH ISSUED TO LOWER LEVEL:          0  ACCURACY: -nan
DTLB TIMELY PREFETCHES:          0 LATE PREFETCHES: 0 DROPPED PREFETCHES: 0
DTLB PREFETCHES SAME FILL-ORIGIN LEVEL: 0 DIFFERENT FILL-ORIGIN LEVEL: 0
DTLB AVERAGE MISS LATENCY: 119.838 cycles
DTLB RQ	ACCESS:   18647306	FORWARD:          0	MERGED:     536042	TO_CACHE:   18111264

STLB TOTAL     ACCESS:   11284607  HIT:   11277317  MISS:       7290  HIT %:    99.9354  MISS %:  0.0646013   MPKI: 0.03645
STLB LOAD TRANSLATION ACCESS:       7290  HIT:          0  MISS:       7290  HIT %:          0  MISS %:        100   MPKI: 0.03645
STLB TRANSLATION FROM L1D PREFETCHER ACCESS:   11277317  HIT:   11277317  MISS:          0  HIT %:        100  MISS %:          0   MPKI: 0
STLB PREFETCH  REQUESTED:          0  ISSUED:          0  USEFUL:          1  USELESS:          0
STLB USEFUL LOAD PREFETCHES:          1 PREFETCH ISSUED TO LOWER LEVEL:          0  ACCURACY: inf
STLB TIMELY PREFETCHES:          1 LATE PREFETCHES: 1539 DROPPED PREFETCHES: 1045742
STLB PREFETCHES SAME FILL-ORIGIN LEVEL: 0 DIFFERENT FILL-ORIGIN LEVEL: 0
STLB AVERAGE MISS LATENCY: 108.549 cycles
STLB RQ	ACCESS:   66400921	FORWARD:          0	MERGED:   54000461	TO_CACHE:   12400460

STLB Hit, L1D data hit: 0
STLB Hit, L2C data hit: 0
STLB Hit, LLC data hit: 0
STLB Hit, LLC data miss: 0
STLB STLB hints to L2: 0
L1D TOTAL     ACCESS:   76596444  HIT:   76129959  MISS:     466485  HIT %:     99.391  MISS %:   0.609017   MPKI: 2.33242
L1D LOAD      ACCESS:   14429382  HIT:   14422030  MISS:       7352  HIT %:     99.949  MISS %:  0.0509516   MPKI: 0.03676
L1D RFO       ACCESS:    4174845  HIT:    4174845  MISS:          0  HIT %:        100  MISS %:          0   MPKI: 0
L1D PREFETCH  ACCESS:   57992217  HIT:   57533084  MISS:     459133  HIT %:    99.2083  MISS %:   0.791715   MPKI: 2.29566
L1D PREFETCH  REQUESTED:  178112019  ISSUED:  178112019  USEFUL:     459156  USELESS:          0
L1D USEFUL LOAD PREFETCHES:     459156 PREFETCH ISSUED TO LOWER LEVEL:    2436520  ACCURACY: 18.8447
L1D TIMELY PREFETCHES:     459156 LATE PREFETCHES: 3979 DROPPED PREFETCHES: 2985099
L1D PREFETCHES SAME FILL-ORIGIN LEVEL: 463151 DIFFERENT FILL-ORIGIN LEVEL: 1973369
L1D AVERAGE MISS LATENCY: 183.647 cycles
L1D RQ	ACCESS:   29856491	FORWARD:          0	MERGED:   15384353	TO_CACHE:   14472138
L1D WQ	ACCESS:    4175168	FORWARD:          0	MERGED:          0	TO_CACHE:    4175168
L1D PQ	ACCESS:  111718389	FORWARD:          0	MERGED:   45324759	TO_CACHE:   66393630

L1D UNIQUE REGIONS ACCESSED: 0
L1D REGIONS CONFLICTS: 0
L1D Cross Page Prefetch Requests: 14774919
L1D Same Page Prefetch Requests: 154213596
L1D ROI Sum of L1D PQ occupancy: 867346109
L1D PREFETCHES PUSHED FROM L2C: 0
L1I TOTAL     ACCESS:   33202077  HIT:   33202077  MISS:          0  HIT %:        100  MISS %:          0   MPKI: 0
L1I LOAD      ACCESS:   33202077  HIT:   33202077  MISS:          0  HIT %:        100  MISS %:          0   MPKI: 0
L1I PREFETCH  REQUESTED:          0  ISSUED:          0  USEFUL:          0  USELESS:          0
L1I USEFUL LOAD PREFETCHES:          0 PREFETCH ISSUED TO LOWER LEVEL:          0  ACCURACY: -nan
L1I TIMELY PREFETCHES:          0 LATE PREFETCHES: 0 DROPPED PREFETCHES: 0
L1I PREFETCHES SAME FILL-ORIGIN LEVEL: 0 DIFFERENT FILL-ORIGIN LEVEL: 0
L1I AVERAGE MISS LATENCY: -nan cycles
L1I RQ	ACCESS:   80074000	FORWARD:          0	MERGED:   46869488	TO_CACHE:   33204512

BTB TOTAL     ACCESS:   59708646  HIT:   59708645  MISS:          1  HIT %:        100  MISS %: 1.6748e-06   MPKI: 5e-06
BTB BRANCH_DIRECT_JUMP	ACCESS:          0  HIT:          0  MISS:          0
BTB BRANCH_INDIRECT	ACCESS:          0  HIT:          0  MISS:          0
BTB BRANCH_CONDITIONAL	ACCESS:   59708646  HIT:   59708645  MISS:          1
BTB BRANCH_DIRECT_CALL	ACCESS:          0  HIT:          0  MISS:          0
BTB BRANCH_INDIRECT_CALL	ACCESS:          0  HIT:          0  MISS:          0
BTB BRANCH_RETURN	ACCESS:          0  HIT:          0  MISS:          0
BTB BRANCH_OTHER ACCESS:          0  HIT:          0  MISS:          0

L2C TOTAL     ACCESS:    3071610  HIT:    2397422  MISS:     674188  HIT %:     78.051  MISS %:     21.949   MPKI: 3.37094
L2C LOAD      ACCESS:       3373  HIT:          0  MISS:       3373  HIT %:          0  MISS %:        100   MPKI: 0.016865
L2C DATA LOAD MPKI: 0.016865
L2C INSTRUCTION LOAD MPKI: 0
L2C PREFETCH  ACCESS:    1547182  HIT:    1084079  MISS:     463103  HIT %:     70.068  MISS %:     29.932   MPKI: 2.31551
L2C DATA PREFETCH MPKI: 2.31551
L2C INSTRUCTION PREFETCH MPKI: 0
L2C WRITEBACK ACCESS:     466484  HIT:     259698  MISS:     206786  HIT %:    55.6714  MISS %:    44.3286   MPKI: 1.03393
L2C LOAD TRANSLATION ACCESS:       7290  HIT:       7289  MISS:          1  HIT %:    99.9863  MISS %:  0.0137174   MPKI: 5e-06
L2C TRANSLATION FROM L1D PREFETCHER ACCESS:    1047281  HIT:    1046356  MISS:        925  HIT %:    99.9117  MISS %:   0.088324   MPKI: 0.004625
L2C PREFETCH  REQUESTED:          0  ISSUED:          0  USEFUL:        925  USELESS:     463262
L2C USEFUL LOAD PREFETCHES:        925 PREFETCH ISSUED TO LOWER LEVEL:     463151  ACCURACY: 0.199719
L2C TIMELY PREFETCHES:        925 LATE PREFETCHES: 0 DROPPED PREFETCHES: 0
L2C PREFETCHES SAME FILL-ORIGIN LEVEL: 93999 DIFFERENT FILL-ORIGIN LEVEL: 0
L2C AVERAGE MISS LATENCY: 148.571 cycles
L2C RQ	ACCESS:    1057945	FORWARD:          0	MERGED:          0	TO_CACHE:    1057945
L2C WQ	ACCESS:     466524	FORWARD:          0	MERGED:          0	TO_CACHE:     466524
L2C PQ	ACCESS:    2436520	FORWARD:          0	MERGED:        517	TO_CACHE:    2436003

L2C Instructions Evicting Data 0
L2C Translations Evicting Data 926
L2C Data Evicting Data 465746
L2C Instructions Evicting Instructions 0
L2C Translations Evicting Instructions 0
L2C Data Evicting Instructions 0
L2C Instructions Evicting Translations 0
L2C Translations Evicting Translations 0
L2C Data Evicting Translations 778
L2C Dense regions hint from L2: 0
PSCL5 TOTAL     ACCESS:    1054571  HIT:    1054571  MISS:          0  HIT %:        100  MISS %:          0   MPKI: 0
PSCL5 LOAD TRANSLATION ACCESS:       7290  HIT:       7290  MISS:          0  HIT %:        100  MISS %:          0   MPKI: 0
PSCL5 TRANSLATION FROM L1D PREFETCHER ACCESS:    1047281  HIT:    1047281  MISS:          0  HIT %:        100  MISS %:          0   MPKI: 0
PSCL5 PREFETCH  REQUESTED:          0  ISSUED:          0  USEFUL:          0  USELESS:          0
PSCL5 USEFUL LOAD PREFETCHES:          0 PREFETCH ISSUED TO LOWER LEVEL:          0  ACCURACY: -nan
PSCL5 TIMELY PREFETCHES:          0 LATE PREFETCHES: 0 DROPPED PREFETCHES: 0
PSCL5 PREFETCHES SAME FILL-ORIGIN LEVEL: 0 DIFFERENT FILL-ORIGIN LEVEL: 0

PSCL4 TOTAL     ACCESS:    1054571  HIT:    1054571  MISS:          0  HIT %:        100  MISS %:          0   MPKI: 0
PSCL4 LOAD TRANSLATION ACCESS:       7290  HIT:       7290  MISS:          0  HIT %:        100  MISS %:          0   MPKI: 0
PSCL4 TRANSLATION FROM L1D PREFETCHER ACCESS:    1047281  HIT:    1047281  MISS:          0  HIT %:        100  MISS %:          0   MPKI: 0
PSCL4 PREFETCH  REQUESTED:          0  ISSUED:          0  USEFUL:          0  USELESS:          0
PSCL4 USEFUL LOAD PREFETCHES:          0 PREFETCH ISSUED TO LOWER LEVEL:          0  ACCURACY: -nan
PSCL4 TIMELY PREFETCHES:          0 LATE PREFETCHES: 0 DROPPED PREFETCHES: 0
PSCL4 PREFETCHES SAME FILL-ORIGIN LEVEL: 0 DIFFERENT FILL-ORIGIN LEVEL: 0

PSCL3 TOTAL     ACCESS:    1054571  HIT:    1054571  MISS:          0  HIT %:        100  MISS %:          0   MPKI: 0
PSCL3 LOAD TRANSLATION ACCESS:       7290  HIT:       7290  MISS:          0  HIT %:        100  MISS %:          0   MPKI: 0
PSCL3 TRANSLATION FROM L1D PREFETCHER ACCESS:    1047281  HIT:    1047281  MISS:          0  HIT %:        100  MISS %:          0   MPKI: 0
PSCL3 PREFETCH  REQUESTED:          0  ISSUED:          0  USEFUL:          0  USELESS:          0
PSCL3 USEFUL LOAD PREFETCHES:          0 PREFETCH ISSUED TO LOWER LEVEL:          0  ACCURACY: -nan
PSCL3 TIMELY PREFETCHES:          0 LATE PREFETCHES: 0 DROPPED PREFETCHES: 0
PSCL3 PREFETCHES SAME FILL-ORIGIN LEVEL: 0 DIFFERENT FILL-ORIGIN LEVEL: 0

PSCL2 TOTAL     ACCESS:    1052513  HIT:    1052498  MISS:         15  HIT %:    99.9986  MISS %: 0.00142516   MPKI: 7.5e-05
PSCL2 LOAD TRANSLATION ACCESS:       7290  HIT:       7275  MISS:         15  HIT %:    99.7942  MISS %:   0.205761   MPKI: 7.5e-05
PSCL2 TRANSLATION FROM L1D PREFETCHER ACCESS:    1045223  HIT:    1045223  MISS:          0  HIT %:        100  MISS %:          0   MPKI: 0
PSCL2 PREFETCH  REQUESTED:          0  ISSUED:          0  USEFUL:          0  USELESS:          0
PSCL2 USEFUL LOAD PREFETCHES:          0 PREFETCH ISSUED TO LOWER LEVEL:          0  ACCURACY: -nan
PSCL2 TIMELY PREFETCHES:          0 LATE PREFETCHES: 0 DROPPED PREFETCHES: 0
PSCL2 PREFETCHES SAME FILL-ORIGIN LEVEL: 0 DIFFERENT FILL-ORIGIN LEVEL: 0

LLC TOTAL     ACCESS:     933848  HIT:     419738  MISS:     514110  HIT %:    44.9471  MISS %:    55.0529   MPKI: 2.57055
LLC LOAD      ACCESS:       3373  HIT:          0  MISS:       3373  HIT %:          0  MISS %:        100   MPKI: 0.016865
LLC PREFETCH  ACCESS:     463104  HIT:          0  MISS:     463104  HIT %:          0  MISS %:        100   MPKI: 2.31552
LLC WRITEBACK ACCESS:     466445  HIT:     419734  MISS:      46711  HIT %:    89.9857  MISS %:    10.0143   MPKI: 0.233555
LLC LOAD TRANSLATION ACCESS:          1  HIT:          0  MISS:          1  HIT %:          0  MISS %:        100   MPKI: 5e-06
LLC TRANSLATION FROM L1D PREFETCHER ACCESS:        925  HIT:          4  MISS:        921  HIT %:   0.432432  MISS %:    99.5676   MPKI: 0.004605
LLC PREFETCH  REQUESTED:          0  ISSUED:          0  USEFUL:          0  USELESS:    1861183
LLC USEFUL LOAD PREFETCHES:          0 PREFETCH ISSUED TO LOWER LEVEL:    1852553  ACCURACY: 0
LLC TIMELY PREFETCHES:          0 LATE PREFETCHES: 0 DROPPED PREFETCHES: 0
LLC PREFETCHES SAME FILL-ORIGIN LEVEL: 0 DIFFERENT FILL-ORIGIN LEVEL: 0
LLC AVERAGE MISS LATENCY: 670.631 cycles
LLC RQ	ACCESS:      17195	FORWARD:          0	MERGED:          0	TO_CACHE:      17195
LLC WQ	ACCESS:    1866164	FORWARD:          0	MERGED:          0	TO_CACHE:    1866164
LLC PQ	ACCESS:    1852553	FORWARD:          0	MERGED:          0	TO_CACHE:    1852553

LLC Dense regions hint to LLC: 0

RAW hits: 0
Loads Generated: 29854313
Loads sent to L1D: 29854313
Stores Generated: 4174849
Stores sent to L1D: 4174845
Major fault: 0 Minor fault: 9127
Allocated PAGES: 36508

CPU 3 cumulative IPC: 1.16458 instructions: 200000001 cycles: 171735978
ITLB TOTAL     ACCESS:   33202086  HIT:   33202086  MISS:          0  HIT %:        100  MISS %:          0   MPKI: 0
ITLB LOAD TRANSLATION ACCESS:   33202086  HIT:   33202086  MISS:          0  HIT %:        100  MISS %:          0   MPKI: 0
ITLB PREFETCH  REQUESTED:          0  ISSUED:          0  USEFUL:          0  USELESS:          0
ITLB USEFUL LOAD PREFETCHES:          0 PREFETCH ISSUED TO LOWER LEVEL:          0  ACCURACY: -nan
ITLB TIMELY PREFETCHES:          0 LATE PREFETCHES: 0 DROPPED PREFETCHES: 0
ITLB PREFETCHES SAME FILL-ORIGIN LEVEL: 0 DIFFERENT FILL-ORIGIN LEVEL: 0
ITLB AVERAGE MISS LATENCY: -nan cycles
ITLB RQ	ACCESS:   33202085	FORWARD:          0	MERGED:          0	TO_CACHE:   33202085

DTLB TOTAL     ACCESS:   18109739  HIT:   18102450  MISS:       7289  HIT %:    99.9598  MISS %:  0.0402491   MPKI: 0.036445
DTLB LOAD TRANSLATION ACCESS:   18109739  HIT:   18102450  MISS:       7289  HIT %:    99.9598  MISS %:  0.0402491   MPKI: 0.036445
DTLB PREFETCH  REQUESTED:          0  ISSUED:          0  USEFUL:          0  USELESS:          0
DTLB USEFUL LOAD PREFETCHES:          0 PREFETCH ISSUED TO LOWER LEVEL:          0  ACCURACY: -nan
DTLB TIMELY PREFETCHES:          0 LATE PREFETCHES: 0 DROPPED PREFETCHES: 0
DTLB PREFETCHES SAME FILL-ORIGIN LEVEL: 0 DIFFERENT FILL-ORIGIN LEVEL: 0
DTLB AVERAGE MISS LATENCY: 119.821 cycles
DTLB RQ	ACCESS:   18645894	FORWARD:          0	MERGED:     536154	TO_CACHE:   18109740

STLB TOTAL     ACCESS:   11284002  HIT:   11276713  MISS:       7289  HIT %:    99.9354  MISS %:  0.0645959   MPKI: 0.036445
STLB LOAD TRANSLATION ACCESS:       7289  HIT:          0  MISS:       7289  HIT %:          0  MISS %:        100   MPKI: 0.036445
STLB TRANSLATION FROM L1D PREFETCHER ACCESS:   11276713  HIT:   11276713  MISS:          0  HIT %:        100  MISS %:          0   MPKI: 0
STLB PREFETCH  REQUESTED:          0  ISSUED:          0  USEFUL:          0  USELESS:          0
STLB USEFUL LOAD PREFETCHES:          0 PREFETCH ISSUED TO LOWER LEVEL:          0  ACCURACY: -nan
STLB TIMELY PREFETCHES:          0 LATE PREFETCHES: 1539 DROPPED PREFETCHES: 1045122
STLB PREFETCHES SAME FILL-ORIGIN LEVEL: 0 DIFFERENT FILL-ORIGIN LEVEL: 0
STLB AVERAGE MISS LATENCY: 108.53 cycles
STLB RQ	ACCESS:   66394479	FORWARD:          0	MERGED:   53996294	TO_CACHE:   12398185

STLB Hit, L1D data hit: 0
STLB Hit, L2C data hit: 0
STLB Hit, LLC data hit: 0
STLB Hit, LLC data miss: 0
STLB STLB hints to L2: 0
L1D TOTAL     ACCESS:   76584165  HIT:   76117684  MISS:     466481  HIT %:    99.3909  MISS %:   0.609109   MPKI: 2.3324
L1D LOAD      ACCESS:   14429161  HIT:   14421772  MISS:       7389  HIT %:    99.9488  MISS %:  0.0512088   MPKI: 0.036945
L1D RFO       ACCESS:    4174845  HIT:    4174845  MISS:          0  HIT %:        100  MISS %:          0   MPKI: 0
L1D PREFETCH  ACCESS:   57980159  HIT:   57521067  MISS:     459092  HIT %:    99.2082  MISS %:   0.791809   MPKI: 2.29546
L1D PREFETCH  REQUESTED:  178098417  ISSUED:  178098417  USEFUL:     459084  USELESS:          0
L1D USEFUL LOAD PREFETCHES:     459084 PREFETCH ISSUED TO LOWER LEVEL:    2445050  ACCURACY: 18.7761
L1D TIMELY PREFETCHES:     459084 LATE PREFETCHES: 4017 DROPPED PREFETCHES: 2983916
L1D PREFETCHES SAME FILL-ORIGIN LEVEL: 463110 DIFFERENT FILL-ORIGIN LEVEL: 1981940
L1D AVERAGE MISS LATENCY: 183.915 cycles
L1D RQ	ACCESS:   29854296	FORWARD:          0	MERGED:   15383247	TO_CACHE:   14471049
L1D WQ	ACCESS:    4174845	FORWARD:          0	MERGED:          0	TO_CACHE:    4174845
L1D PQ	ACCESS:  111711228	FORWARD:          0	MERGED:   45324039	TO_CACHE:   66387189

L1D UNIQUE REGIONS ACCESSED: 0
L1D REGIONS CONFLICTS: 0
L1D Cross Page Prefetch Requests: 14771050
L1D Same Page Prefetch Requests: 154211846
L1D ROI Sum of L1D PQ occupancy: 867323610
L1D PREFETCHES PUSHED FROM L2C: 0
L1I TOTAL     ACCESS:   33202086  HIT:   33202086  MISS:          0  HIT %:        100  MISS %:          0   MPKI: 0
L1I LOAD      ACCESS:   33202086  HIT:   33202086  MISS:          0  HIT %:        100  MISS %:          0   MPKI: 0
L1I PREFETCH  REQUESTED:          0  ISSUED:          0  USEFUL:          0  USELESS:          0
L1I USEFUL LOAD PREFETCHES:          0 PREFETCH ISSUED TO LOWER LEVEL:          0  ACCURACY: -nan
L1I TIMELY PREFETCHES:          0 LATE PREFETCHES: 0 DROPPED PREFETCHES: 0
L1I PREFETCHES SAME FILL-ORIGIN LEVEL: 0 DIFFERENT FILL-ORIGIN LEVEL: 0
L1I AVERAGE MISS LATENCY: -nan cycles
L1I RQ	ACCESS:   80068137	FORWARD:          0	MERGED:   46866052	TO_CACHE:   33202085

BTB TOTAL     ACCESS:   59708596  HIT:   59708594  MISS:          2  HIT %:        100  MISS %: 3.3496e-06   MPKI: 1e-05
BTB BRANCH_DIRECT_JUMP	ACCESS:          0  HIT:          0  MISS:          0
BTB BRANCH_INDIRECT	ACCESS:          0  HIT:          0  MISS:          0
BTB BRANCH_CONDITIONAL	ACCESS:   59708596  HIT:   59708594  MISS:          2
BTB BRANCH_DIRECT_CALL	ACCESS:          0  HIT:          0  MISS:          0
BTB BRANCH_INDIRECT_CALL	ACCESS:          0  HIT:          0  MISS:          0
BTB BRANCH_RETURN	ACCESS:          0  HIT:          0  MISS:          0
BTB BRANCH_OTHER ACCESS:          0  HIT:          0  MISS:          0

L2C TOTAL     ACCESS:    3077570  HIT:    2403189  MISS:     674381  HIT %:    78.0872  MISS %:    21.9128   MPKI: 3.3719
L2C LOAD      ACCESS:       3372  HIT:          0  MISS:       3372  HIT %:          0  MISS %:        100   MPKI: 0.01686
L2C DATA LOAD MPKI: 0.01686
L2C INSTRUCTION LOAD MPKI: 0
L2C PREFETCH  ACCESS:    1553767  HIT:    1090667  MISS:     463100  HIT %:     70.195  MISS %:     29.805   MPKI: 2.3155
L2C DATA PREFETCH MPKI: 2.3155
L2C INSTRUCTION PREFETCH MPKI: 0
L2C WRITEBACK ACCESS:     466481  HIT:     259496  MISS:     206985  HIT %:    55.6284  MISS %:    44.3716   MPKI: 1.03492
L2C LOAD TRANSLATION ACCESS:       7289  HIT:       7289  MISS:          0  HIT %:        100  MISS %:          0   MPKI: 0
L2C TRANSLATION FROM L1D PREFETCHER ACCESS:    1046661  HIT:    1045737  MISS:        924  HIT %:    99.9117  MISS %:  0.0882807   MPKI: 0.00462
L2C PREFETCH  REQUESTED:          0  ISSUED:          0  USEFUL:        924  USELESS:     463312
L2C USEFUL LOAD PREFETCHES:        924 PREFETCH ISSUED TO LOWER LEVEL:     463101  ACCURACY: 0.199525
L2C TIMELY PREFETCHES:        924 LATE PREFETCHES: 0 DROPPED PREFETCHES: 0
L2C PREFETCHES SAME FILL-ORIGIN LEVEL: 93612 DIFFERENT FILL-ORIGIN LEVEL: 0
L2C AVERAGE MISS LATENCY: 148.895 cycles
L2C RQ	ACCESS:    1057322	FORWARD:          0	MERGED:          0	TO_CACHE:    1057322
L2C WQ	ACCESS:     466481	FORWARD:          0	MERGED:          0	TO_CACHE:     466481
L2C PQ	ACCESS:    2445050	FORWARD:          0	MERGED:        494	TO_CACHE:    2444556

L2C Instructions Evicting Data 0
L2C Translations Evicting Data 916
L2C Data Evicting Data 465699
L2C Instructions Evicting Instructions 0
L2C Translations Evicting Instructions 0
L2C Data Evicting Instructions 0
L2C Instructions Evicting Translations 0
L2C Translations Evicting Translations 8
L2C Data Evicting Translations 773
L2C Dense regions hint from L2: 0
PSCL5 TOTAL     ACCESS:    1053950  HIT:    1053950  MISS:          0  HIT %:        100  MISS %:          0   MPKI: 0
PSCL5 LOAD TRANSLATION ACCESS:       7289  HIT:       7289  MISS:          0  HIT %:        100  MISS %:          0   MPKI: 0
PSCL5 TRANSLATION FROM L1D PREFETCHER ACCESS:    1046661  HIT:    1046661  MISS:          0  HIT %:        100  MISS %:          0   MPKI: 0
PSCL5 PREFETCH  REQUESTED:          0  ISSUED:          0  USEFUL:          0  USELESS:          0
PSCL5 USEFUL LOAD PREFETCHES:          0 PREFETCH ISSUED TO LOWER LEVEL:          0  ACCURACY: -nan
PSCL5 TIMELY PREFETCHES:          0 LATE PREFETCHES: 0 DROPPED PREFETCHES: 0
PSCL5 PREFETCHES SAME FILL-ORIGIN LEVEL: 0 DIFFERENT FILL-ORIGIN LEVEL: 0

PSCL4 TOTAL     ACCESS:    1053950  HIT:    1053950  MISS:          0  HIT %:        100  MISS %:          0   MPKI: 0
PSCL4 LOAD TRANSLATION ACCESS:       7289  HIT:       7289  MISS:          0  HIT %:        100  MISS %:          0   MPKI: 0
PSCL4 TRANSLATION FROM L1D PREFETCHER ACCESS:    1046661  HIT:    1046661  MISS:          0  HIT %:        100  MISS %:          0   MPKI: 0
PSCL4 PREFETCH  REQUESTED:          0  ISSUED:          0  USEFUL:          0  USELESS:          0
PSCL4 USEFUL LOAD PREFETCHES:          0 PREFETCH ISSUED TO LOWER LEVEL:          0  ACCURACY: -nan
PSCL4 TIMELY PREFETCHES:          0 LATE PREFETCHES: 0 DROPPED PREFETCHES: 0
PSCL4 PREFETCHES SAME FILL-ORIGIN LEVEL: 0 DIFFERENT FILL-ORIGIN LEVEL: 0

PSCL3 TOTAL     ACCESS:    1053950  HIT:    1053950  MISS:          0  HIT %:        100  MISS %:          0   MPKI: 0
PSCL3 LOAD TRANSLATION ACCESS:       7289  HIT:       7289  MISS:          0  HIT %:        100  MISS %:          0   MPKI: 0
PSCL3 TRANSLATION FROM L1D PREFETCHER ACCESS:    1046661  HIT:    1046661  MISS:          0  HIT %:        100  MISS %:          0   MPKI: 0
PSCL3 PREFETCH  REQUESTED:          0  ISSUED:          0  USEFUL:          0  USELESS:          0
PSCL3 USEFUL LOAD PREFETCHES:          0 PREFETCH ISSUED TO LOWER LEVEL:          0  ACCURACY: -nan
PSCL3 TIMELY PREFETCHES:          0 LATE PREFETCHES: 0 DROPPED PREFETCHES: 0
PSCL3 PREFETCHES SAME FILL-ORIGIN LEVEL: 0 DIFFERENT FILL-ORIGIN LEVEL: 0

PSCL2 TOTAL     ACCESS:    1051840  HIT:    1051825  MISS:         15  HIT %:    99.9986  MISS %: 0.00142607   MPKI: 7.5e-05
PSCL2 LOAD TRANSLATION ACCESS:       7289  HIT:       7274  MISS:         15  HIT %:    99.7942  MISS %:    0.20579   MPKI: 7.5e-05
PSCL2 TRANSLATION FROM L1D PREFETCHER ACCESS:    1044551  HIT:    1044551  MISS:          0  HIT %:        100  MISS %:          0   MPKI: 0
PSCL2 PREFETCH  REQUESTED:          0  ISSUED:          0  USEFUL:          0  USELESS:          0
PSCL2 USEFUL LOAD PREFETCHES:          0 PREFETCH ISSUED TO LOWER LEVEL:          0  ACCURACY: -nan
PSCL2 TIMELY PREFETCHES:          0 LATE PREFETCHES: 0 DROPPED PREFETCHES: 0
PSCL2 PREFETCHES SAME FILL-ORIGIN LEVEL: 0 DIFFERENT FILL-ORIGIN LEVEL: 0

LLC TOTAL     ACCESS:     933881  HIT:     419067  MISS:     514814  HIT %:    44.8737  MISS %:    55.1263   MPKI: 2.57407
LLC LOAD      ACCESS:       3372  HIT:          0  MISS:       3372  HIT %:          0  MISS %:        100   MPKI: 0.01686
LLC PREFETCH  ACCESS:     463100  HIT:          0  MISS:     463100  HIT %:          0  MISS %:        100   MPKI: 2.3155
LLC WRITEBACK ACCESS:     466485  HIT:     419067  MISS:      47418  HIT %:     89.835  MISS %:     10.165   MPKI: 0.23709
LLC TRANSLATION FROM L1D PREFETCHER ACCESS:        924  HIT:          0  MISS:        924  HIT %:          0  MISS %:        100   MPKI: 0.00462
LLC PREFETCH  REQUESTED:          0  ISSUED:          0  USEFUL:          0  USELESS:    1861183
LLC USEFUL LOAD PREFETCHES:          0 PREFETCH ISSUED TO LOWER LEVEL:    1852553  ACCURACY: 0
LLC TIMELY PREFETCHES:          0 LATE PREFETCHES: 0 DROPPED PREFETCHES: 0
LLC PREFETCHES SAME FILL-ORIGIN LEVEL: 0 DIFFERENT FILL-ORIGIN LEVEL: 0
LLC AVERAGE MISS LATENCY: 669.714 cycles
LLC RQ	ACCESS:      17195	FORWARD:          0	MERGED:          0	TO_CACHE:      17195
LLC WQ	ACCESS:    1866164	FORWARD:          0	MERGED:          0	TO_CACHE:    1866164
LLC PQ	ACCESS:    1852553	FORWARD:          0	MERGED:          0	TO_CACHE:    1852553

LLC Dense regions hint to LLC: 0

RAW hits: 0
Loads Generated: 29854296
Loads sent to L1D: 29854296
Stores Generated: 4174846
Stores sent to L1D: 4174845
Major fault: 0 Minor fault: 9127
Allocated PAGES: 36508

DRAM Statistics
 CHANNEL 0
 RQ ROW_BUFFER_HIT:     358886  ROW_BUFFER_MISS:    1510858
 DBUS_CONGESTED:       3867
 WQ ROW_BUFFER_HIT:    1043684  ROW_BUFFER_MISS:     829872  FULL:      31391

 AVG_CONGESTED_CYCLE: 5
 All warmup complete: 5
Channel 0 Bank busy for read cycles: 0
Channel 0 Bank busy for write cycles: 0
Channel 0
Rank 0
0banks busy for read cycles: 1763790
0banks busy for write cycles: 14180
1banks busy for read cycles: 42831549
1banks busy for write cycles: 1706199
2banks busy for read cycles: 39118844
2banks busy for write cycles: 1963588
3banks busy for read cycles: 18138100
3banks busy for write cycles: 2167901
4banks busy for read cycles: 7148642
4banks busy for write cycles: 2268857
5banks busy for read cycles: 1486251
5banks busy for write cycles: 2515593
6banks busy for read cycles: 668378
6banks busy for write cycles: 3083979
7banks busy for read cycles: 661084
7banks busy for write cycles: 5989311
8banks busy for read cycles: 3257317
8banks busy for write cycles: 36952416

CPU 0 Branch Prediction Accuracy: 99.6666% MPKI: 1.06487 Average ROB Occupancy at Mispredict: 26.5186
Branch types
NOT_BRANCH: 136131148 68.0583%
BRANCH_DIRECT_JUMP: 0 0%
BRANCH_INDIRECT: 0 0%
BRANCH_CONDITIONAL: 63890255 31.9417%
BRANCH_DIRECT_CALL: 0 0%
BRANCH_INDIRECT_CALL: 0 0%
BRANCH_RETURN: 0 0%
BRANCH_OTHER: 0 0%


CPU 1 Branch Prediction Accuracy: 99.6666% MPKI: 1.06493 Average ROB Occupancy at Mispredict: 26.533
Branch types
NOT_BRANCH: 136121181 68.0583%
BRANCH_DIRECT_JUMP: 0 0%
BRANCH_INDIRECT: 0 0%
BRANCH_CONDITIONAL: 63885593 31.9417%
BRANCH_DIRECT_CALL: 0 0%
BRANCH_INDIRECT_CALL: 0 0%
BRANCH_RETURN: 0 0%
BRANCH_OTHER: 0 0%


CPU 2 Branch Prediction Accuracy: 99.6666% MPKI: 1.06489 Average ROB Occupancy at Mispredict: 26.5193
Branch types
NOT_BRANCH: 136126647 68.0583%
BRANCH_DIRECT_JUMP: 0 0%
BRANCH_INDIRECT: 0 0%
BRANCH_CONDITIONAL: 63888155 31.9417%
BRANCH_DIRECT_CALL: 0 0%
BRANCH_INDIRECT_CALL: 0 0%
BRANCH_RETURN: 0 0%
BRANCH_OTHER: 0 0%


CPU 3 Branch Prediction Accuracy: 99.6666% MPKI: 1.06494 Average ROB Occupancy at Mispredict: 26.5121
Branch types
NOT_BRANCH: 136116572 68.0583%
BRANCH_DIRECT_JUMP: 0 0%
BRANCH_INDIRECT: 0 0%
BRANCH_CONDITIONAL: 63883441 31.9417%
BRANCH_DIRECT_CALL: 0 0%
BRANCH_INDIRECT_CALL: 0 0%
BRANCH_RETURN: 0 0%
BRANCH_OTHER: 0 0%

DRAM PAGES: 1048576
Allocated PAGES: 36508
