
*** ChampSim Multicore Out-of-Order Simulator ***

Warmup Instructions: 50000000
Simulation Instructions: 200000000
Number of CPUs: 4
LLC sets: 8192
LLC ways: 16
Off-chip DRAM Size: 4096 MB Channels: 1 Width: 64-bit Data Rate: 6400 MT/s
CPU 0 runs ./traces/ligra/ligra_BellmanFord.com-lj.ungraph.gcc_6.3.0_O3.drop_33750M.length_250M.champsimtrace.xz
.xz
CPU 1 runs ./traces/ligra/ligra_BellmanFord.com-lj.ungraph.gcc_6.3.0_O3.drop_33750M.length_250M.champsimtrace.xz
.xz
CPU 2 runs ./traces/ligra/ligra_BellmanFord.com-lj.ungraph.gcc_6.3.0_O3.drop_33750M.length_250M.champsimtrace.xz
.xz
CPU 3 runs ./traces/ligra/ligra_BellmanFord.com-lj.ungraph.gcc_6.3.0_O3.drop_33750M.length_250M.champsimtrace.xz
.xz
BTB has LRU replacement policy
ITLB has LRU replacement policy
DTLB has LRU replacement policy
STLB has LRU replacement policy
L1I has LRU replacement policy
History Sets: 8
History Ways: 16
BERTI Size: 16
BERTI Stride Size: 8
L1D has LRU replacement policy
Initialize SRRIP state for L2C
Initialize DRRIP state for LLC
BTB has LRU replacement policy
ITLB has LRU replacement policy
DTLB has LRU replacement policy
STLB has LRU replacement policy
L1I has LRU replacement policy
History Sets: 8
History Ways: 16
BERTI Size: 16
BERTI Stride Size: 8
L1D has LRU replacement policy
Initialize SRRIP state for L2C
Initialize DRRIP state for LLC
BTB has LRU replacement policy
ITLB has LRU replacement policy
DTLB has LRU replacement policy
STLB has LRU replacement policy
L1I has LRU replacement policy
History Sets: 8
History Ways: 16
BERTI Size: 16
BERTI Stride Size: 8
L1D has LRU replacement policy
Initialize SRRIP state for L2C
Initialize DRRIP state for LLC
BTB has LRU replacement policy
ITLB has LRU replacement policy
DTLB has LRU replacement policy
STLB has LRU replacement policy
L1I has LRU replacement policy
History Sets: 8
History Ways: 16
BERTI Size: 16
BERTI Stride Size: 8
L1D has LRU replacement policy
Initialize SRRIP state for L2C
Initialize DRRIP state for LLC
Heartbeat CPU 0 instructions: 10000001 cycles: 3265030 heartbeat IPC: 3.06276 cumulative IPC: 3.06276 (Simulation time: 0 hr 2 min 20 sec) 
Heartbeat CPU 1 instructions: 10000001 cycles: 3265076 heartbeat IPC: 3.06272 cumulative IPC: 3.06272 (Simulation time: 0 hr 2 min 20 sec) 
Heartbeat CPU 3 instructions: 10000001 cycles: 3265112 heartbeat IPC: 3.06268 cumulative IPC: 3.06268 (Simulation time: 0 hr 2 min 20 sec) 
Heartbeat CPU 2 instructions: 10000001 cycles: 3265144 heartbeat IPC: 3.06265 cumulative IPC: 3.06265 (Simulation time: 0 hr 2 min 20 sec) 
Heartbeat CPU 0 instructions: 20000001 cycles: 6522975 heartbeat IPC: 3.06942 cumulative IPC: 3.06609 (Simulation time: 0 hr 4 min 48 sec) 
Heartbeat CPU 2 instructions: 20000001 cycles: 6522983 heartbeat IPC: 3.06952 cumulative IPC: 3.06608 (Simulation time: 0 hr 4 min 48 sec) 
Heartbeat CPU 1 instructions: 20000001 cycles: 6523000 heartbeat IPC: 3.06944 cumulative IPC: 3.06607 (Simulation time: 0 hr 4 min 48 sec) 
Heartbeat CPU 3 instructions: 20000001 cycles: 6523026 heartbeat IPC: 3.06945 cumulative IPC: 3.06606 (Simulation time: 0 hr 4 min 48 sec) 
Heartbeat CPU 0 instructions: 30000000 cycles: 9767570 heartbeat IPC: 3.08205 cumulative IPC: 3.07139 (Simulation time: 0 hr 7 min 18 sec) 
Heartbeat CPU 1 instructions: 30000000 cycles: 9767601 heartbeat IPC: 3.08204 cumulative IPC: 3.07138 (Simulation time: 0 hr 7 min 18 sec) 
Heartbeat CPU 2 instructions: 30000000 cycles: 9767641 heartbeat IPC: 3.08199 cumulative IPC: 3.07137 (Simulation time: 0 hr 7 min 18 sec) 
Heartbeat CPU 3 instructions: 30000000 cycles: 9767668 heartbeat IPC: 3.082 cumulative IPC: 3.07136 (Simulation time: 0 hr 7 min 18 sec) 
Heartbeat CPU 0 instructions: 40000000 cycles: 12996790 heartbeat IPC: 3.09672 cumulative IPC: 3.07768 (Simulation time: 0 hr 9 min 25 sec) 
Heartbeat CPU 1 instructions: 40000000 cycles: 12996851 heartbeat IPC: 3.09669 cumulative IPC: 3.07767 (Simulation time: 0 hr 9 min 25 sec) 
Heartbeat CPU 2 instructions: 40000000 cycles: 12996866 heartbeat IPC: 3.09672 cumulative IPC: 3.07767 (Simulation time: 0 hr 9 min 25 sec) 
Heartbeat CPU 3 instructions: 40000000 cycles: 12996871 heartbeat IPC: 3.09674 cumulative IPC: 3.07766 (Simulation time: 0 hr 9 min 25 sec) 
Heartbeat CPU 0 instructions: 50000000 cycles: 16213558 heartbeat IPC: 3.10871 cumulative IPC: 3.08384 (Simulation time: 0 hr 12 min 5 sec) 
Heartbeat CPU 1 instructions: 50000000 cycles: 16213659 heartbeat IPC: 3.10867 cumulative IPC: 3.08382 (Simulation time: 0 hr 12 min 5 sec) 
Heartbeat CPU 3 instructions: 50000000 cycles: 16213698 heartbeat IPC: 3.10865 cumulative IPC: 3.08381 (Simulation time: 0 hr 12 min 5 sec) 
Heartbeat CPU 2 instructions: 50000000 cycles: 16213712 heartbeat IPC: 3.10863 cumulative IPC: 3.08381 (Simulation time: 0 hr 12 min 5 sec) 

Warmup complete CPU 0 instructions: 50000455 cycles: 16213713 (Simulation time: 0 hr 12 min 5 sec) 
Warmup complete CPU 1 instructions: 50000151 cycles: 16213713 (Simulation time: 0 hr 12 min 5 sec) 
Warmup complete CPU 2 instructions: 50000004 cycles: 16213713 (Simulation time: 0 hr 12 min 5 sec) 
Warmup complete CPU 3 instructions: 50000040 cycles: 16213712 (Simulation time: 0 hr 12 min 5 sec) 

Heartbeat CPU 1 instructions: 60000000 cycles: 58418286 heartbeat IPC: 0.236941 cumulative IPC: 0.236938 (Simulation time: 0 hr 17 min 20 sec) 
Heartbeat CPU 3 instructions: 60000000 cycles: 58577822 heartbeat IPC: 0.236049 cumulative IPC: 0.236048 (Simulation time: 0 hr 17 min 21 sec) 
Heartbeat CPU 2 instructions: 60000000 cycles: 58618648 heartbeat IPC: 0.235822 cumulative IPC: 0.235822 (Simulation time: 0 hr 17 min 22 sec) 
Heartbeat CPU 0 instructions: 60000000 cycles: 58628136 heartbeat IPC: 0.235768 cumulative IPC: 0.235758 (Simulation time: 0 hr 17 min 22 sec) 
Heartbeat CPU 1 instructions: 70000000 cycles: 94656893 heartbeat IPC: 0.275949 cumulative IPC: 0.25496 (Simulation time: 0 hr 22 min 20 sec) 
Heartbeat CPU 3 instructions: 70000000 cycles: 94925471 heartbeat IPC: 0.275121 cumulative IPC: 0.254091 (Simulation time: 0 hr 22 min 22 sec) 
Heartbeat CPU 0 instructions: 70000000 cycles: 95011489 heartbeat IPC: 0.274851 cumulative IPC: 0.253808 (Simulation time: 0 hr 22 min 22 sec) 
Heartbeat CPU 2 instructions: 70000000 cycles: 95015368 heartbeat IPC: 0.27475 cumulative IPC: 0.253802 (Simulation time: 0 hr 22 min 22 sec) 
Heartbeat CPU 1 instructions: 80000001 cycles: 135352795 heartbeat IPC: 0.245725 cumulative IPC: 0.251805 (Simulation time: 0 hr 27 min 39 sec) 
Heartbeat CPU 3 instructions: 80000001 cycles: 135707065 heartbeat IPC: 0.245209 cumulative IPC: 0.25106 (Simulation time: 0 hr 27 min 44 sec) 
Heartbeat CPU 2 instructions: 80000001 cycles: 135872207 heartbeat IPC: 0.244757 cumulative IPC: 0.250713 (Simulation time: 0 hr 27 min 45 sec) 
Heartbeat CPU 0 instructions: 80000001 cycles: 135882975 heartbeat IPC: 0.244669 cumulative IPC: 0.250687 (Simulation time: 0 hr 27 min 45 sec) 
Heartbeat CPU 1 instructions: 90000003 cycles: 178036098 heartbeat IPC: 0.234284 cumulative IPC: 0.247184 (Simulation time: 0 hr 32 min 33 sec) 
Heartbeat CPU 3 instructions: 90000003 cycles: 178450722 heartbeat IPC: 0.233953 cumulative IPC: 0.246553 (Simulation time: 0 hr 32 min 38 sec) 
Heartbeat CPU 2 instructions: 90000003 cycles: 178554733 heartbeat IPC: 0.234288 cumulative IPC: 0.246395 (Simulation time: 0 hr 32 min 39 sec) 
Heartbeat CPU 0 instructions: 90000003 cycles: 178600619 heartbeat IPC: 0.234095 cumulative IPC: 0.246322 (Simulation time: 0 hr 32 min 39 sec) 
Heartbeat CPU 1 instructions: 100000001 cycles: 222529756 heartbeat IPC: 0.224751 cumulative IPC: 0.242346 (Simulation time: 0 hr 37 min 26 sec) 
Heartbeat CPU 3 instructions: 100000001 cycles: 223031442 heartbeat IPC: 0.224312 cumulative IPC: 0.241759 (Simulation time: 0 hr 37 min 28 sec) 
Heartbeat CPU 0 instructions: 100000001 cycles: 223115899 heartbeat IPC: 0.224642 cumulative IPC: 0.241658 (Simulation time: 0 hr 37 min 29 sec) 
Heartbeat CPU 2 instructions: 100000001 cycles: 223133645 heartbeat IPC: 0.224321 cumulative IPC: 0.241639 (Simulation time: 0 hr 37 min 29 sec) 
Heartbeat CPU 1 instructions: 110000000 cycles: 268072345 heartbeat IPC: 0.219575 cumulative IPC: 0.238228 (Simulation time: 0 hr 42 min 17 sec) 
Heartbeat CPU 3 instructions: 110000000 cycles: 268650568 heartbeat IPC: 0.219206 cumulative IPC: 0.237683 (Simulation time: 0 hr 42 min 21 sec) 
Heartbeat CPU 0 instructions: 110000000 cycles: 268741765 heartbeat IPC: 0.219174 cumulative IPC: 0.237596 (Simulation time: 0 hr 42 min 21 sec) 
Heartbeat CPU 2 instructions: 110000000 cycles: 268785133 heartbeat IPC: 0.219051 cumulative IPC: 0.237557 (Simulation time: 0 hr 42 min 22 sec) 
Heartbeat CPU 1 instructions: 120000001 cycles: 312011043 heartbeat IPC: 0.22759 cumulative IPC: 0.236648 (Simulation time: 0 hr 46 min 40 sec) 
Heartbeat CPU 3 instructions: 120000001 cycles: 312688088 heartbeat IPC: 0.227079 cumulative IPC: 0.236108 (Simulation time: 0 hr 46 min 46 sec) 
Heartbeat CPU 2 instructions: 120000001 cycles: 312729591 heartbeat IPC: 0.22756 cumulative IPC: 0.236075 (Simulation time: 0 hr 46 min 46 sec) 
Heartbeat CPU 0 instructions: 120000001 cycles: 312740916 heartbeat IPC: 0.227277 cumulative IPC: 0.236064 (Simulation time: 0 hr 46 min 46 sec) 
Heartbeat CPU 1 instructions: 130000003 cycles: 352309492 heartbeat IPC: 0.248149 cumulative IPC: 0.238027 (Simulation time: 0 hr 51 min 13 sec) 
Heartbeat CPU 2 instructions: 130000003 cycles: 353063842 heartbeat IPC: 0.247928 cumulative IPC: 0.237494 (Simulation time: 0 hr 51 min 18 sec) 
Heartbeat CPU 3 instructions: 130000003 cycles: 353100273 heartbeat IPC: 0.24745 cumulative IPC: 0.237469 (Simulation time: 0 hr 51 min 18 sec) 
Heartbeat CPU 0 instructions: 130000003 cycles: 353117546 heartbeat IPC: 0.247668 cumulative IPC: 0.237455 (Simulation time: 0 hr 51 min 18 sec) 
Heartbeat CPU 1 instructions: 140000001 cycles: 400946171 heartbeat IPC: 0.205606 cumulative IPC: 0.233928 (Simulation time: 0 hr 55 min 55 sec) 
Heartbeat CPU 2 instructions: 140000001 cycles: 401629460 heartbeat IPC: 0.205907 cumulative IPC: 0.233514 (Simulation time: 0 hr 55 min 59 sec) 
Heartbeat CPU 3 instructions: 140000001 cycles: 401664814 heartbeat IPC: 0.205912 cumulative IPC: 0.233493 (Simulation time: 0 hr 56 min 0 sec) 
Heartbeat CPU 0 instructions: 140000001 cycles: 401747373 heartbeat IPC: 0.205635 cumulative IPC: 0.233441 (Simulation time: 0 hr 56 min 0 sec) 
Heartbeat CPU 1 instructions: 150000000 cycles: 443730748 heartbeat IPC: 0.233729 cumulative IPC: 0.233908 (Simulation time: 1 hr 0 min 22 sec) 
Heartbeat CPU 2 instructions: 150000000 cycles: 444367218 heartbeat IPC: 0.233985 cumulative IPC: 0.233561 (Simulation time: 1 hr 0 min 25 sec) 
Heartbeat CPU 3 instructions: 150000000 cycles: 444372208 heartbeat IPC: 0.234151 cumulative IPC: 0.233558 (Simulation time: 1 hr 0 min 25 sec) 
Heartbeat CPU 0 instructions: 150000000 cycles: 444468950 heartbeat IPC: 0.234074 cumulative IPC: 0.233505 (Simulation time: 1 hr 0 min 26 sec) 
Heartbeat CPU 1 instructions: 160000000 cycles: 485283391 heartbeat IPC: 0.240659 cumulative IPC: 0.234506 (Simulation time: 1 hr 4 min 33 sec) 
Heartbeat CPU 2 instructions: 160000000 cycles: 485902568 heartbeat IPC: 0.240759 cumulative IPC: 0.234198 (Simulation time: 1 hr 4 min 35 sec) 
Heartbeat CPU 0 instructions: 160000000 cycles: 485916512 heartbeat IPC: 0.241269 cumulative IPC: 0.23419 (Simulation time: 1 hr 4 min 36 sec) 
Heartbeat CPU 3 instructions: 160000000 cycles: 485916663 heartbeat IPC: 0.240706 cumulative IPC: 0.23419 (Simulation time: 1 hr 4 min 36 sec) 
Heartbeat CPU 1 instructions: 170000003 cycles: 530704574 heartbeat IPC: 0.220162 cumulative IPC: 0.23324 (Simulation time: 1 hr 8 min 36 sec) 
Heartbeat CPU 2 instructions: 170000003 cycles: 531433503 heartbeat IPC: 0.219631 cumulative IPC: 0.23291 (Simulation time: 1 hr 8 min 41 sec) 
Heartbeat CPU 3 instructions: 170000003 cycles: 531458643 heartbeat IPC: 0.219578 cumulative IPC: 0.232899 (Simulation time: 1 hr 8 min 41 sec) 
Heartbeat CPU 0 instructions: 170000003 cycles: 531461727 heartbeat IPC: 0.219562 cumulative IPC: 0.232897 (Simulation time: 1 hr 8 min 41 sec) 
Heartbeat CPU 1 instructions: 180000000 cycles: 570803181 heartbeat IPC: 0.249385 cumulative IPC: 0.234407 (Simulation time: 1 hr 12 min 35 sec) 
Heartbeat CPU 2 instructions: 180000000 cycles: 571613383 heartbeat IPC: 0.248881 cumulative IPC: 0.234066 (Simulation time: 1 hr 12 min 39 sec) 
Heartbeat CPU 3 instructions: 180000000 cycles: 571698070 heartbeat IPC: 0.248512 cumulative IPC: 0.23403 (Simulation time: 1 hr 12 min 40 sec) 
Heartbeat CPU 0 instructions: 180000000 cycles: 571721590 heartbeat IPC: 0.248386 cumulative IPC: 0.234019 (Simulation time: 1 hr 12 min 40 sec) 
Heartbeat CPU 1 instructions: 190000002 cycles: 602306921 heartbeat IPC: 0.317423 cumulative IPC: 0.23887 (Simulation time: 1 hr 16 min 19 sec) 
Heartbeat CPU 2 instructions: 190000002 cycles: 603168723 heartbeat IPC: 0.316904 cumulative IPC: 0.238519 (Simulation time: 1 hr 16 min 27 sec) 
Heartbeat CPU 3 instructions: 190000001 cycles: 603235555 heartbeat IPC: 0.317083 cumulative IPC: 0.238492 (Simulation time: 1 hr 16 min 28 sec) 
Heartbeat CPU 0 instructions: 190000001 cycles: 603236884 heartbeat IPC: 0.317306 cumulative IPC: 0.238491 (Simulation time: 1 hr 16 min 28 sec) 
Heartbeat CPU 1 instructions: 200000000 cycles: 620791800 heartbeat IPC: 0.540983 cumulative IPC: 0.248107 (Simulation time: 1 hr 19 min 22 sec) 
Heartbeat CPU 2 instructions: 200000000 cycles: 621606263 heartbeat IPC: 0.542372 cumulative IPC: 0.247773 (Simulation time: 1 hr 19 min 35 sec) 
Heartbeat CPU 0 instructions: 200000000 cycles: 621643945 heartbeat IPC: 0.54327 cumulative IPC: 0.247757 (Simulation time: 1 hr 19 min 36 sec) 
Heartbeat CPU 3 instructions: 200000000 cycles: 621688986 heartbeat IPC: 0.541905 cumulative IPC: 0.247739 (Simulation time: 1 hr 19 min 36 sec) 
Heartbeat CPU 1 instructions: 210000002 cycles: 629133937 heartbeat IPC: 1.19873 cumulative IPC: 0.261045 (Simulation time: 1 hr 21 min 44 sec) 
Heartbeat CPU 2 instructions: 210000002 cycles: 629948400 heartbeat IPC: 1.19873 cumulative IPC: 0.260699 (Simulation time: 1 hr 21 min 56 sec) 
Heartbeat CPU 0 instructions: 210000002 cycles: 629986082 heartbeat IPC: 1.19873 cumulative IPC: 0.260682 (Simulation time: 1 hr 21 min 57 sec) 
Heartbeat CPU 3 instructions: 210000002 cycles: 630031123 heartbeat IPC: 1.19873 cumulative IPC: 0.260664 (Simulation time: 1 hr 21 min 58 sec) 
Heartbeat CPU 1 instructions: 220000000 cycles: 638110102 heartbeat IPC: 1.11406 cumulative IPC: 0.273357 (Simulation time: 1 hr 24 min 24 sec) 
Heartbeat CPU 2 instructions: 220000000 cycles: 638924526 heartbeat IPC: 1.11407 cumulative IPC: 0.273 (Simulation time: 1 hr 24 min 40 sec) 
Heartbeat CPU 0 instructions: 220000000 cycles: 638963180 heartbeat IPC: 1.11395 cumulative IPC: 0.272982 (Simulation time: 1 hr 24 min 41 sec) 
Heartbeat CPU 3 instructions: 220000000 cycles: 639007118 heartbeat IPC: 1.11408 cumulative IPC: 0.272964 (Simulation time: 1 hr 24 min 42 sec) 
Heartbeat CPU 1 instructions: 230000000 cycles: 649140441 heartbeat IPC: 0.90659 cumulative IPC: 0.284393 (Simulation time: 1 hr 27 min 51 sec) 
Heartbeat CPU 2 instructions: 230000000 cycles: 649953202 heartbeat IPC: 0.906727 cumulative IPC: 0.284028 (Simulation time: 1 hr 28 min 5 sec) 
Heartbeat CPU 0 instructions: 230000000 cycles: 649998243 heartbeat IPC: 0.906202 cumulative IPC: 0.284007 (Simulation time: 1 hr 28 min 6 sec) 
Heartbeat CPU 3 instructions: 230000000 cycles: 650067278 heartbeat IPC: 0.904146 cumulative IPC: 0.283977 (Simulation time: 1 hr 28 min 7 sec) 
Heartbeat CPU 1 instructions: 240000002 cycles: 664576824 heartbeat IPC: 0.64782 cumulative IPC: 0.293045 (Simulation time: 1 hr 31 min 26 sec) 
Heartbeat CPU 2 instructions: 240000002 cycles: 665564567 heartbeat IPC: 0.640559 cumulative IPC: 0.2926 (Simulation time: 1 hr 31 min 38 sec) 
Heartbeat CPU 0 instructions: 240000002 cycles: 665582248 heartbeat IPC: 0.641684 cumulative IPC: 0.292591 (Simulation time: 1 hr 31 min 38 sec) 
Heartbeat CPU 3 instructions: 240000002 cycles: 665672976 heartbeat IPC: 0.640792 cumulative IPC: 0.292551 (Simulation time: 1 hr 31 min 39 sec) 
*** Reached end of trace for Core: 1 Repeating trace: ./traces/ligra/ligra_BellmanFord.com-lj.ungraph.gcc_6.3.0_O3.drop_33750M.length_250M.champsimtrace.xz
Heartbeat CPU 1 instructions: 250000001 cycles: 673425399 heartbeat IPC: 1.13013 cumulative IPC: 0.304316 (Simulation time: 1 hr 33 min 51 sec) 
Finished CPU 1 instructions: 200000000 cycles: 657217156 cumulative IPC: 0.304313 (Simulation time: 1 hr 33 min 51 sec) 
*** Reached end of trace for Core: 2 Repeating trace: ./traces/ligra/ligra_BellmanFord.com-lj.ungraph.gcc_6.3.0_O3.drop_33750M.length_250M.champsimtrace.xz
Heartbeat CPU 2 instructions: 250000001 cycles: 674203385 heartbeat IPC: 1.15757 cumulative IPC: 0.303956 (Simulation time: 1 hr 34 min 4 sec) 
Finished CPU 2 instructions: 200000000 cycles: 657992325 cumulative IPC: 0.303955 (Simulation time: 1 hr 34 min 4 sec) 
*** Reached end of trace for Core: 0 Repeating trace: ./traces/ligra/ligra_BellmanFord.com-lj.ungraph.gcc_6.3.0_O3.drop_33750M.length_250M.champsimtrace.xz
Heartbeat CPU 0 instructions: 250000001 cycles: 674215011 heartbeat IPC: 1.15838 cumulative IPC: 0.30395 (Simulation time: 1 hr 34 min 4 sec) 
Finished CPU 0 instructions: 200000001 cycles: 658014328 cumulative IPC: 0.303945 (Simulation time: 1 hr 34 min 5 sec) 
*** Reached end of trace for Core: 3 Repeating trace: ./traces/ligra/ligra_BellmanFord.com-lj.ungraph.gcc_6.3.0_O3.drop_33750M.length_250M.champsimtrace.xz
Heartbeat CPU 3 instructions: 250000001 cycles: 674306021 heartbeat IPC: 1.15834 cumulative IPC: 0.303909 (Simulation time: 1 hr 34 min 5 sec) 
Finished CPU 3 instructions: 200000001 cycles: 658096080 cumulative IPC: 0.303907 (Simulation time: 1 hr 34 min 5 sec) 

ChampSim completed all CPUs

Total Simulation Statistics (not including warmup)

CPU 0 cumulative IPC: 0.303918 instructions: 200007358 cycles: 658096079
ITLB TOTAL     ACCESS:   34839158  HIT:   34839149  MISS:          9  HIT %:        100  MISS %: 2.5833e-05   MPKI: 4.49983e-05
ITLB LOAD      ACCESS:          0  HIT:          0  MISS:          0  HIT %:       -nan  MISS %:       -nan   MPKI: 0
ITLB RFO       ACCESS:          0  HIT:          0  MISS:          0  HIT %:       -nan  MISS %:       -nan   MPKI: 0
ITLB PREFETCH  ACCESS:          0  HIT:          0  MISS:          0  HIT %:       -nan  MISS %:       -nan   MPKI: 0
ITLB WRITEBACK ACCESS:          0  HIT:          0  MISS:          0  HIT %:       -nan  MISS %:       -nan   MPKI: 0
DTLB TOTAL     ACCESS:   39907179  HIT:   38004868  MISS:    1902311  HIT %:    95.2332  MISS %:    4.76684   MPKI: 9.51121
DTLB LOAD      ACCESS:          0  HIT:          0  MISS:          0  HIT %:       -nan  MISS %:       -nan   MPKI: 0
DTLB RFO       ACCESS:          0  HIT:          0  MISS:          0  HIT %:       -nan  MISS %:       -nan   MPKI: 0
DTLB PREFETCH  ACCESS:          0  HIT:          0  MISS:          0  HIT %:       -nan  MISS %:       -nan   MPKI: 0
DTLB WRITEBACK ACCESS:          0  HIT:          0  MISS:          0  HIT %:       -nan  MISS %:       -nan   MPKI: 0
STLB TOTAL     ACCESS:   18844150  HIT:   18133458  MISS:     710692  HIT %:    96.2286  MISS %:    3.77142   MPKI: 3.55333
STLB LOAD      ACCESS:          0  HIT:          0  MISS:          0  HIT %:       -nan  MISS %:       -nan   MPKI: 0
STLB RFO       ACCESS:          0  HIT:          0  MISS:          0  HIT %:       -nan  MISS %:       -nan   MPKI: 0
STLB PREFETCH  ACCESS:          0  HIT:          0  MISS:          0  HIT %:       -nan  MISS %:       -nan   MPKI: 0
STLB WRITEBACK ACCESS:          0  HIT:          0  MISS:          0  HIT %:       -nan  MISS %:       -nan   MPKI: 0
L1D TOTAL     ACCESS:   88696571  HIT:   83705390  MISS:    4991181  HIT %:    94.3727  MISS %:    5.62725   MPKI: 24.955
L1D LOAD      ACCESS:   38906618  HIT:   36172550  MISS:    2734068  HIT %:    92.9727  MISS %:    7.02726   MPKI: 13.6698
L1D RFO       ACCESS:    1394108  HIT:    1074253  MISS:     319855  HIT %:    77.0567  MISS %:    22.9433   MPKI: 1.59922
L1D PREFETCH  ACCESS:   48395845  HIT:   46458587  MISS:    1937258  HIT %:    95.9971  MISS %:    4.00294   MPKI: 9.68593
L1D WRITEBACK ACCESS:          0  HIT:          0  MISS:          0  HIT %:       -nan  MISS %:       -nan   MPKI: 0
L1I TOTAL     ACCESS:   35716304  HIT:   35716208  MISS:         96  HIT %:    99.9997  MISS %: 0.000268785   MPKI: 0.000479982
L1I LOAD      ACCESS:   35716304  HIT:   35716208  MISS:         96  HIT %:    99.9997  MISS %: 0.000268785   MPKI: 0.000479982
L1I RFO       ACCESS:          0  HIT:          0  MISS:          0  HIT %:       -nan  MISS %:       -nan   MPKI: 0
L1I PREFETCH  ACCESS:          0  HIT:          0  MISS:          0  HIT %:       -nan  MISS %:       -nan   MPKI: 0
L1I WRITEBACK ACCESS:          0  HIT:          0  MISS:          0  HIT %:       -nan  MISS %:       -nan   MPKI: 0
L2C TOTAL     ACCESS:   20200495  HIT:   14949572  MISS:    5250923  HIT %:     74.006  MISS %:     25.994   MPKI: 26.2536
L2C LOAD      ACCESS:    2699366  HIT:     505681  MISS:    2193685  HIT %:    18.7333  MISS %:    81.2667   MPKI: 10.968
L2C RFO       ACCESS:     319852  HIT:       7430  MISS:     312422  HIT %:    2.32295  MISS %:    97.6771   MPKI: 1.56205
L2C PREFETCH  ACCESS:   14907103  HIT:   12376130  MISS:    2530973  HIT %:    83.0217  MISS %:    16.9783   MPKI: 12.6544
L2C WRITEBACK ACCESS:     808518  HIT:     746757  MISS:      61761  HIT %:    92.3612  MISS %:    7.63879   MPKI: 0.308794
PSCL5 TOTAL     ACCESS:    1464944  HIT:    1464944  MISS:          0  HIT %:        100  MISS %:          0   MPKI: 0
PSCL5 LOAD      ACCESS:          0  HIT:          0  MISS:          0  HIT %:       -nan  MISS %:       -nan   MPKI: 0
PSCL5 RFO       ACCESS:          0  HIT:          0  MISS:          0  HIT %:       -nan  MISS %:       -nan   MPKI: 0
PSCL5 PREFETCH  ACCESS:          0  HIT:          0  MISS:          0  HIT %:       -nan  MISS %:       -nan   MPKI: 0
PSCL5 WRITEBACK ACCESS:          0  HIT:          0  MISS:          0  HIT %:       -nan  MISS %:       -nan   MPKI: 0
PSCL4 TOTAL     ACCESS:    1464944  HIT:    1464944  MISS:          0  HIT %:        100  MISS %:          0   MPKI: 0
PSCL4 LOAD      ACCESS:          0  HIT:          0  MISS:          0  HIT %:       -nan  MISS %:       -nan   MPKI: 0
PSCL4 RFO       ACCESS:          0  HIT:          0  MISS:          0  HIT %:       -nan  MISS %:       -nan   MPKI: 0
PSCL4 PREFETCH  ACCESS:          0  HIT:          0  MISS:          0  HIT %:       -nan  MISS %:       -nan   MPKI: 0
PSCL4 WRITEBACK ACCESS:          0  HIT:          0  MISS:          0  HIT %:       -nan  MISS %:       -nan   MPKI: 0
PSCL3 TOTAL     ACCESS:    1464944  HIT:    1464943  MISS:          1  HIT %:    99.9999  MISS %: 6.8262e-05   MPKI: 4.99982e-06
PSCL3 LOAD      ACCESS:          0  HIT:          0  MISS:          0  HIT %:       -nan  MISS %:       -nan   MPKI: 0
PSCL3 RFO       ACCESS:          0  HIT:          0  MISS:          0  HIT %:       -nan  MISS %:       -nan   MPKI: 0
PSCL3 PREFETCH  ACCESS:          0  HIT:          0  MISS:          0  HIT %:       -nan  MISS %:       -nan   MPKI: 0
PSCL3 WRITEBACK ACCESS:          0  HIT:          0  MISS:          0  HIT %:       -nan  MISS %:       -nan   MPKI: 0
PSCL2 TOTAL     ACCESS:    1463165  HIT:    1463013  MISS:        152  HIT %:    99.9896  MISS %:  0.0103884   MPKI: 0.000759972
PSCL2 LOAD      ACCESS:          0  HIT:          0  MISS:          0  HIT %:       -nan  MISS %:       -nan   MPKI: 0
PSCL2 RFO       ACCESS:          0  HIT:          0  MISS:          0  HIT %:       -nan  MISS %:       -nan   MPKI: 0
PSCL2 PREFETCH  ACCESS:          0  HIT:          0  MISS:          0  HIT %:       -nan  MISS %:       -nan   MPKI: 0
PSCL2 WRITEBACK ACCESS:          0  HIT:          0  MISS:          0  HIT %:       -nan  MISS %:       -nan   MPKI: 0
LLC TOTAL     ACCESS:    5980295  HIT:    1246234  MISS:    4734061  HIT %:     20.839  MISS %:     79.161   MPKI: 23.6694
LLC LOAD      ACCESS:    2146580  HIT:     309474  MISS:    1837106  HIT %:    14.4171  MISS %:    85.5829   MPKI: 9.18519
LLC RFO       ACCESS:     312422  HIT:       9841  MISS:     302581  HIT %:    3.14991  MISS %:    96.8501   MPKI: 1.51285
LLC PREFETCH  ACCESS:    2578078  HIT:      22852  MISS:    2555226  HIT %:   0.886397  MISS %:    99.1136   MPKI: 12.7757
LLC WRITEBACK ACCESS:     791133  HIT:     760805  MISS:      30328  HIT %:    96.1665  MISS %:    3.83349   MPKI: 0.151634

RAW hits: 87
Loads Generated: 56682659
Loads sent to L1D: 56682572
Stores Generated: 1808061
Stores sent to L1D: 1808061

CPU 1 cumulative IPC: 0.304166 instructions: 200170486 cycles: 658096079
ITLB TOTAL     ACCESS:   34867332  HIT:   34867323  MISS:          9  HIT %:        100  MISS %: 2.58121e-05   MPKI: 4.49617e-05
ITLB LOAD      ACCESS:          0  HIT:          0  MISS:          0  HIT %:       -nan  MISS %:       -nan   MPKI: 0
ITLB RFO       ACCESS:          0  HIT:          0  MISS:          0  HIT %:       -nan  MISS %:       -nan   MPKI: 0
ITLB PREFETCH  ACCESS:          0  HIT:          0  MISS:          0  HIT %:       -nan  MISS %:       -nan   MPKI: 0
ITLB WRITEBACK ACCESS:          0  HIT:          0  MISS:          0  HIT %:       -nan  MISS %:       -nan   MPKI: 0
DTLB TOTAL     ACCESS:   39917875  HIT:   38011424  MISS:    1906451  HIT %:    95.2241  MISS %:    4.77593   MPKI: 9.52414
DTLB LOAD      ACCESS:          0  HIT:          0  MISS:          0  HIT %:       -nan  MISS %:       -nan   MPKI: 0
DTLB RFO       ACCESS:          0  HIT:          0  MISS:          0  HIT %:       -nan  MISS %:       -nan   MPKI: 0
DTLB PREFETCH  ACCESS:          0  HIT:          0  MISS:          0  HIT %:       -nan  MISS %:       -nan   MPKI: 0
DTLB WRITEBACK ACCESS:          0  HIT:          0  MISS:          0  HIT %:       -nan  MISS %:       -nan   MPKI: 0
STLB TOTAL     ACCESS:   18889546  HIT:   18177191  MISS:     712355  HIT %:    96.2288  MISS %:    3.77116   MPKI: 3.55874
STLB LOAD      ACCESS:          0  HIT:          0  MISS:          0  HIT %:       -nan  MISS %:       -nan   MPKI: 0
STLB RFO       ACCESS:          0  HIT:          0  MISS:          0  HIT %:       -nan  MISS %:       -nan   MPKI: 0
STLB PREFETCH  ACCESS:          0  HIT:          0  MISS:          0  HIT %:       -nan  MISS %:       -nan   MPKI: 0
STLB WRITEBACK ACCESS:          0  HIT:          0  MISS:          0  HIT %:       -nan  MISS %:       -nan   MPKI: 0
L1D TOTAL     ACCESS:   89297654  HIT:   84298039  MISS:    4999615  HIT %:    94.4012  MISS %:    5.59882   MPKI: 24.9768
L1D LOAD      ACCESS:   38909678  HIT:   36172671  MISS:    2737007  HIT %:    92.9657  MISS %:    7.03426   MPKI: 13.6734
L1D RFO       ACCESS:    1393933  HIT:    1073997  MISS:     319936  HIT %:     77.048  MISS %:     22.952   MPKI: 1.59832
L1D PREFETCH  ACCESS:   48994043  HIT:   47051371  MISS:    1942672  HIT %:    96.0349  MISS %:    3.96512   MPKI: 9.70509
L1D WRITEBACK ACCESS:          0  HIT:          0  MISS:          0  HIT %:       -nan  MISS %:       -nan   MPKI: 0
L1I TOTAL     ACCESS:   35744673  HIT:   35744577  MISS:         96  HIT %:    99.9997  MISS %: 0.000268571   MPKI: 0.000479591
L1I LOAD      ACCESS:   35744673  HIT:   35744577  MISS:         96  HIT %:    99.9997  MISS %: 0.000268571   MPKI: 0.000479591
L1I RFO       ACCESS:          0  HIT:          0  MISS:          0  HIT %:       -nan  MISS %:       -nan   MPKI: 0
L1I PREFETCH  ACCESS:          0  HIT:          0  MISS:          0  HIT %:       -nan  MISS %:       -nan   MPKI: 0
L1I WRITEBACK ACCESS:          0  HIT:          0  MISS:          0  HIT %:       -nan  MISS %:       -nan   MPKI: 0
L2C TOTAL     ACCESS:   19971082  HIT:   14713248  MISS:    5257834  HIT %:    73.6728  MISS %:    26.3272   MPKI: 26.2668
L2C LOAD      ACCESS:    2701972  HIT:     505198  MISS:    2196774  HIT %:    18.6974  MISS %:    81.3026   MPKI: 10.9745
L2C RFO       ACCESS:     319933  HIT:       7464  MISS:     312469  HIT %:    2.33299  MISS %:     97.667   MPKI: 1.56101
L2C PREFETCH  ACCESS:   14687572  HIT:   12151279  MISS:    2536293  HIT %:    82.7317  MISS %:    17.2683   MPKI: 12.6707
L2C WRITEBACK ACCESS:     808827  HIT:     747843  MISS:      60984  HIT %:    92.4602  MISS %:    7.53981   MPKI: 0.30466
PSCL5 TOTAL     ACCESS:    1452063  HIT:    1452063  MISS:          0  HIT %:        100  MISS %:          0   MPKI: 0
PSCL5 LOAD      ACCESS:          0  HIT:          0  MISS:          0  HIT %:       -nan  MISS %:       -nan   MPKI: 0
PSCL5 RFO       ACCESS:          0  HIT:          0  MISS:          0  HIT %:       -nan  MISS %:       -nan   MPKI: 0
PSCL5 PREFETCH  ACCESS:          0  HIT:          0  MISS:          0  HIT %:       -nan  MISS %:       -nan   MPKI: 0
PSCL5 WRITEBACK ACCESS:          0  HIT:          0  MISS:          0  HIT %:       -nan  MISS %:       -nan   MPKI: 0
PSCL4 TOTAL     ACCESS:    1452063  HIT:    1452063  MISS:          0  HIT %:        100  MISS %:          0   MPKI: 0
PSCL4 LOAD      ACCESS:          0  HIT:          0  MISS:          0  HIT %:       -nan  MISS %:       -nan   MPKI: 0
PSCL4 RFO       ACCESS:          0  HIT:          0  MISS:          0  HIT %:       -nan  MISS %:       -nan   MPKI: 0
PSCL4 PREFETCH  ACCESS:          0  HIT:          0  MISS:          0  HIT %:       -nan  MISS %:       -nan   MPKI: 0
PSCL4 WRITEBACK ACCESS:          0  HIT:          0  MISS:          0  HIT %:       -nan  MISS %:       -nan   MPKI: 0
PSCL3 TOTAL     ACCESS:    1452063  HIT:    1452062  MISS:          1  HIT %:    99.9999  MISS %: 6.88675e-05   MPKI: 4.99574e-06
PSCL3 LOAD      ACCESS:          0  HIT:          0  MISS:          0  HIT %:       -nan  MISS %:       -nan   MPKI: 0
PSCL3 RFO       ACCESS:          0  HIT:          0  MISS:          0  HIT %:       -nan  MISS %:       -nan   MPKI: 0
PSCL3 PREFETCH  ACCESS:          0  HIT:          0  MISS:          0  HIT %:       -nan  MISS %:       -nan   MPKI: 0
PSCL3 WRITEBACK ACCESS:          0  HIT:          0  MISS:          0  HIT %:       -nan  MISS %:       -nan   MPKI: 0
PSCL2 TOTAL     ACCESS:    1450356  HIT:    1450203  MISS:        153  HIT %:    99.9895  MISS %:  0.0105491   MPKI: 0.000764348
PSCL2 LOAD      ACCESS:          0  HIT:          0  MISS:          0  HIT %:       -nan  MISS %:       -nan   MPKI: 0
PSCL2 RFO       ACCESS:          0  HIT:          0  MISS:          0  HIT %:       -nan  MISS %:       -nan   MPKI: 0
PSCL2 PREFETCH  ACCESS:          0  HIT:          0  MISS:          0  HIT %:       -nan  MISS %:       -nan   MPKI: 0
PSCL2 WRITEBACK ACCESS:          0  HIT:          0  MISS:          0  HIT %:       -nan  MISS %:       -nan   MPKI: 0
LLC TOTAL     ACCESS:    5987943  HIT:    1246063  MISS:    4741880  HIT %:    20.8095  MISS %:    79.1905   MPKI: 23.6892
LLC LOAD      ACCESS:    2148802  HIT:     310683  MISS:    1838119  HIT %:    14.4584  MISS %:    85.5416   MPKI: 9.18277
LLC RFO       ACCESS:     312469  HIT:       9762  MISS:     302707  HIT %:    3.12415  MISS %:    96.8759   MPKI: 1.51225
LLC PREFETCH  ACCESS:    2584265  HIT:      22946  MISS:    2561319  HIT %:   0.887912  MISS %:    99.1121   MPKI: 12.7957
LLC WRITEBACK ACCESS:     791093  HIT:     760411  MISS:      30682  HIT %:    96.1216  MISS %:    3.87843   MPKI: 0.153279

RAW hits: 86
Loads Generated: 56742190
Loads sent to L1D: 56742104
Stores Generated: 1808629
Stores sent to L1D: 1808629

CPU 2 cumulative IPC: 0.303919 instructions: 200008119 cycles: 658096079
ITLB TOTAL     ACCESS:   34838665  HIT:   34838656  MISS:          9  HIT %:        100  MISS %: 2.58334e-05   MPKI: 4.49982e-05
ITLB LOAD      ACCESS:          0  HIT:          0  MISS:          0  HIT %:       -nan  MISS %:       -nan   MPKI: 0
ITLB RFO       ACCESS:          0  HIT:          0  MISS:          0  HIT %:       -nan  MISS %:       -nan   MPKI: 0
ITLB PREFETCH  ACCESS:          0  HIT:          0  MISS:          0  HIT %:       -nan  MISS %:       -nan   MPKI: 0
ITLB WRITEBACK ACCESS:          0  HIT:          0  MISS:          0  HIT %:       -nan  MISS %:       -nan   MPKI: 0
DTLB TOTAL     ACCESS:   39914191  HIT:   38011874  MISS:    1902317  HIT %:     95.234  MISS %:    4.76602   MPKI: 9.5112
DTLB LOAD      ACCESS:          0  HIT:          0  MISS:          0  HIT %:       -nan  MISS %:       -nan   MPKI: 0
DTLB RFO       ACCESS:          0  HIT:          0  MISS:          0  HIT %:       -nan  MISS %:       -nan   MPKI: 0
DTLB PREFETCH  ACCESS:          0  HIT:          0  MISS:          0  HIT %:       -nan  MISS %:       -nan   MPKI: 0
DTLB WRITEBACK ACCESS:          0  HIT:          0  MISS:          0  HIT %:       -nan  MISS %:       -nan   MPKI: 0
STLB TOTAL     ACCESS:   18810195  HIT:   18099454  MISS:     710741  HIT %:    96.2215  MISS %:    3.77849   MPKI: 3.55356
STLB LOAD      ACCESS:          0  HIT:          0  MISS:          0  HIT %:       -nan  MISS %:       -nan   MPKI: 0
STLB RFO       ACCESS:          0  HIT:          0  MISS:          0  HIT %:       -nan  MISS %:       -nan   MPKI: 0
STLB PREFETCH  ACCESS:          0  HIT:          0  MISS:          0  HIT %:       -nan  MISS %:       -nan   MPKI: 0
STLB WRITEBACK ACCESS:          0  HIT:          0  MISS:          0  HIT %:       -nan  MISS %:       -nan   MPKI: 0
L1D TOTAL     ACCESS:   89614909  HIT:   84622627  MISS:    4992282  HIT %:    94.4292  MISS %:    5.57082   MPKI: 24.9604
L1D LOAD      ACCESS:   38922550  HIT:   36194963  MISS:    2727587  HIT %:    92.9923  MISS %:    7.00773   MPKI: 13.6374
L1D RFO       ACCESS:    1393967  HIT:    1074103  MISS:     319864  HIT %:    77.0537  MISS %:    22.9463   MPKI: 1.59926
L1D PREFETCH  ACCESS:   49298392  HIT:   47353561  MISS:    1944831  HIT %:     96.055  MISS %:    3.94502   MPKI: 9.72376
L1D WRITEBACK ACCESS:          0  HIT:          0  MISS:          0  HIT %:       -nan  MISS %:       -nan   MPKI: 0
L1I TOTAL     ACCESS:   35715812  HIT:   35715716  MISS:         96  HIT %:    99.9997  MISS %: 0.000268789   MPKI: 0.000479981
L1I LOAD      ACCESS:   35715812  HIT:   35715716  MISS:         96  HIT %:    99.9997  MISS %: 0.000268789   MPKI: 0.000479981
L1I RFO       ACCESS:          0  HIT:          0  MISS:          0  HIT %:       -nan  MISS %:       -nan   MPKI: 0
L1I PREFETCH  ACCESS:          0  HIT:          0  MISS:          0  HIT %:       -nan  MISS %:       -nan   MPKI: 0
L1I WRITEBACK ACCESS:          0  HIT:          0  MISS:          0  HIT %:       -nan  MISS %:       -nan   MPKI: 0
L2C TOTAL     ACCESS:   19734500  HIT:   14480798  MISS:    5253702  HIT %:    73.3781  MISS %:    26.6219   MPKI: 26.2674
L2C LOAD      ACCESS:    2692700  HIT:     500236  MISS:    2192464  HIT %:    18.5775  MISS %:    81.4225   MPKI: 10.9619
L2C RFO       ACCESS:     319861  HIT:       7430  MISS:     312431  HIT %:    2.32288  MISS %:    97.6771   MPKI: 1.56209
L2C PREFETCH  ACCESS:   14447423  HIT:   11914622  MISS:    2532801  HIT %:    82.4688  MISS %:    17.5312   MPKI: 12.6635
L2C WRITEBACK ACCESS:     808530  HIT:     746241  MISS:      62289  HIT %:     92.296  MISS %:    7.70398   MPKI: 0.311432
PSCL5 TOTAL     ACCESS:    1465277  HIT:    1465277  MISS:          0  HIT %:        100  MISS %:          0   MPKI: 0
PSCL5 LOAD      ACCESS:          0  HIT:          0  MISS:          0  HIT %:       -nan  MISS %:       -nan   MPKI: 0
PSCL5 RFO       ACCESS:          0  HIT:          0  MISS:          0  HIT %:       -nan  MISS %:       -nan   MPKI: 0
PSCL5 PREFETCH  ACCESS:          0  HIT:          0  MISS:          0  HIT %:       -nan  MISS %:       -nan   MPKI: 0
PSCL5 WRITEBACK ACCESS:          0  HIT:          0  MISS:          0  HIT %:       -nan  MISS %:       -nan   MPKI: 0
PSCL4 TOTAL     ACCESS:    1465277  HIT:    1465277  MISS:          0  HIT %:        100  MISS %:          0   MPKI: 0
PSCL4 LOAD      ACCESS:          0  HIT:          0  MISS:          0  HIT %:       -nan  MISS %:       -nan   MPKI: 0
PSCL4 RFO       ACCESS:          0  HIT:          0  MISS:          0  HIT %:       -nan  MISS %:       -nan   MPKI: 0
PSCL4 PREFETCH  ACCESS:          0  HIT:          0  MISS:          0  HIT %:       -nan  MISS %:       -nan   MPKI: 0
PSCL4 WRITEBACK ACCESS:          0  HIT:          0  MISS:          0  HIT %:       -nan  MISS %:       -nan   MPKI: 0
PSCL3 TOTAL     ACCESS:    1465277  HIT:    1465276  MISS:          1  HIT %:    99.9999  MISS %: 6.82465e-05   MPKI: 4.9998e-06
PSCL3 LOAD      ACCESS:          0  HIT:          0  MISS:          0  HIT %:       -nan  MISS %:       -nan   MPKI: 0
PSCL3 RFO       ACCESS:          0  HIT:          0  MISS:          0  HIT %:       -nan  MISS %:       -nan   MPKI: 0
PSCL3 PREFETCH  ACCESS:          0  HIT:          0  MISS:          0  HIT %:       -nan  MISS %:       -nan   MPKI: 0
PSCL3 WRITEBACK ACCESS:          0  HIT:          0  MISS:          0  HIT %:       -nan  MISS %:       -nan   MPKI: 0
PSCL2 TOTAL     ACCESS:    1463572  HIT:    1463422  MISS:        150  HIT %:    99.9898  MISS %:  0.0102489   MPKI: 0.00074997
PSCL2 LOAD      ACCESS:          0  HIT:          0  MISS:          0  HIT %:       -nan  MISS %:       -nan   MPKI: 0
PSCL2 RFO       ACCESS:          0  HIT:          0  MISS:          0  HIT %:       -nan  MISS %:       -nan   MPKI: 0
PSCL2 PREFETCH  ACCESS:          0  HIT:          0  MISS:          0  HIT %:       -nan  MISS %:       -nan   MPKI: 0
PSCL2 WRITEBACK ACCESS:          0  HIT:          0  MISS:          0  HIT %:       -nan  MISS %:       -nan   MPKI: 0
LLC TOTAL     ACCESS:    5982405  HIT:    1247212  MISS:    4735193  HIT %:     20.848  MISS %:     79.152   MPKI: 23.675
LLC LOAD      ACCESS:    2145454  HIT:     309788  MISS:    1835666  HIT %:    14.4393  MISS %:    85.5607   MPKI: 9.17796
LLC RFO       ACCESS:     312431  HIT:       9624  MISS:     302807  HIT %:    3.08036  MISS %:    96.9196   MPKI: 1.51397
LLC PREFETCH  ACCESS:    2579811  HIT:      22780  MISS:    2557031  HIT %:    0.88301  MISS %:     99.117   MPKI: 12.7846
LLC WRITEBACK ACCESS:     790992  HIT:     760194  MISS:      30798  HIT %:    96.1064  MISS %:    3.89359   MPKI: 0.153984

RAW hits: 86
Loads Generated: 56682917
Loads sent to L1D: 56682831
Stores Generated: 1808070
Stores sent to L1D: 1808070

CPU 3 cumulative IPC: 0.303907 instructions: 200000001 cycles: 658096080
ITLB TOTAL     ACCESS:   34837503  HIT:   34837494  MISS:          9  HIT %:        100  MISS %: 2.58342e-05   MPKI: 4.5e-05
ITLB LOAD      ACCESS:          0  HIT:          0  MISS:          0  HIT %:       -nan  MISS %:       -nan   MPKI: 0
ITLB RFO       ACCESS:          0  HIT:          0  MISS:          0  HIT %:       -nan  MISS %:       -nan   MPKI: 0
ITLB PREFETCH  ACCESS:          0  HIT:          0  MISS:          0  HIT %:       -nan  MISS %:       -nan   MPKI: 0
ITLB WRITEBACK ACCESS:          0  HIT:          0  MISS:          0  HIT %:       -nan  MISS %:       -nan   MPKI: 0
DTLB TOTAL     ACCESS:   39909901  HIT:   38007804  MISS:    1902097  HIT %:     95.234  MISS %:    4.76598   MPKI: 9.51048
DTLB LOAD      ACCESS:          0  HIT:          0  MISS:          0  HIT %:       -nan  MISS %:       -nan   MPKI: 0
DTLB RFO       ACCESS:          0  HIT:          0  MISS:          0  HIT %:       -nan  MISS %:       -nan   MPKI: 0
DTLB PREFETCH  ACCESS:          0  HIT:          0  MISS:          0  HIT %:       -nan  MISS %:       -nan   MPKI: 0
DTLB WRITEBACK ACCESS:          0  HIT:          0  MISS:          0  HIT %:       -nan  MISS %:       -nan   MPKI: 0
STLB TOTAL     ACCESS:   18844331  HIT:   18133786  MISS:     710545  HIT %:    96.2294  MISS %:     3.7706   MPKI: 3.55272
STLB LOAD      ACCESS:          0  HIT:          0  MISS:          0  HIT %:       -nan  MISS %:       -nan   MPKI: 0
STLB RFO       ACCESS:          0  HIT:          0  MISS:          0  HIT %:       -nan  MISS %:       -nan   MPKI: 0
STLB PREFETCH  ACCESS:          0  HIT:          0  MISS:          0  HIT %:       -nan  MISS %:       -nan   MPKI: 0
STLB WRITEBACK ACCESS:          0  HIT:          0  MISS:          0  HIT %:       -nan  MISS %:       -nan   MPKI: 0
L1D TOTAL     ACCESS:   89315045  HIT:   84323565  MISS:    4991480  HIT %:    94.4114  MISS %:    5.58862   MPKI: 24.9574
L1D LOAD      ACCESS:   38916594  HIT:   36188681  MISS:    2727913  HIT %:    92.9904  MISS %:    7.00964   MPKI: 13.6396
L1D RFO       ACCESS:    1394063  HIT:    1074222  MISS:     319841  HIT %:    77.0569  MISS %:    22.9431   MPKI: 1.5992
L1D PREFETCH  ACCESS:   49004388  HIT:   47060662  MISS:    1943726  HIT %:    96.0336  MISS %:    3.96643   MPKI: 9.71863
L1D WRITEBACK ACCESS:          0  HIT:          0  MISS:          0  HIT %:       -nan  MISS %:       -nan   MPKI: 0
L1I TOTAL     ACCESS:   35714595  HIT:   35714499  MISS:         96  HIT %:    99.9997  MISS %: 0.000268798   MPKI: 0.00048
L1I LOAD      ACCESS:   35714595  HIT:   35714499  MISS:         96  HIT %:    99.9997  MISS %: 0.000268798   MPKI: 0.00048
L1I RFO       ACCESS:          0  HIT:          0  MISS:          0  HIT %:       -nan  MISS %:       -nan   MPKI: 0
L1I PREFETCH  ACCESS:          0  HIT:          0  MISS:          0  HIT %:       -nan  MISS %:       -nan   MPKI: 0
L1I WRITEBACK ACCESS:          0  HIT:          0  MISS:          0  HIT %:       -nan  MISS %:       -nan   MPKI: 0
L2C TOTAL     ACCESS:   19935398  HIT:   14677402  MISS:    5257996  HIT %:    73.6248  MISS %:    26.3752   MPKI: 26.29
L2C LOAD      ACCESS:    2692887  HIT:     500537  MISS:    2192350  HIT %:    18.5874  MISS %:    81.4126   MPKI: 10.9617
L2C RFO       ACCESS:     319838  HIT:       7466  MISS:     312372  HIT %:    2.33431  MISS %:    97.6657   MPKI: 1.56186
L2C PREFETCH  ACCESS:   14655119  HIT:   12123401  MISS:    2531718  HIT %:    82.7247  MISS %:    17.2753   MPKI: 12.6586
L2C WRITEBACK ACCESS:     808523  HIT:     746390  MISS:      62133  HIT %:    92.3152  MISS %:    7.68475   MPKI: 0.310665
PSCL5 TOTAL     ACCESS:    1458484  HIT:    1458484  MISS:          0  HIT %:        100  MISS %:          0   MPKI: 0
PSCL5 LOAD      ACCESS:          0  HIT:          0  MISS:          0  HIT %:       -nan  MISS %:       -nan   MPKI: 0
PSCL5 RFO       ACCESS:          0  HIT:          0  MISS:          0  HIT %:       -nan  MISS %:       -nan   MPKI: 0
PSCL5 PREFETCH  ACCESS:          0  HIT:          0  MISS:          0  HIT %:       -nan  MISS %:       -nan   MPKI: 0
PSCL5 WRITEBACK ACCESS:          0  HIT:          0  MISS:          0  HIT %:       -nan  MISS %:       -nan   MPKI: 0
PSCL4 TOTAL     ACCESS:    1458484  HIT:    1458484  MISS:          0  HIT %:        100  MISS %:          0   MPKI: 0
PSCL4 LOAD      ACCESS:          0  HIT:          0  MISS:          0  HIT %:       -nan  MISS %:       -nan   MPKI: 0
PSCL4 RFO       ACCESS:          0  HIT:          0  MISS:          0  HIT %:       -nan  MISS %:       -nan   MPKI: 0
PSCL4 PREFETCH  ACCESS:          0  HIT:          0  MISS:          0  HIT %:       -nan  MISS %:       -nan   MPKI: 0
PSCL4 WRITEBACK ACCESS:          0  HIT:          0  MISS:          0  HIT %:       -nan  MISS %:       -nan   MPKI: 0
PSCL3 TOTAL     ACCESS:    1458484  HIT:    1458483  MISS:          1  HIT %:    99.9999  MISS %: 6.85643e-05   MPKI: 5e-06
PSCL3 LOAD      ACCESS:          0  HIT:          0  MISS:          0  HIT %:       -nan  MISS %:       -nan   MPKI: 0
PSCL3 RFO       ACCESS:          0  HIT:          0  MISS:          0  HIT %:       -nan  MISS %:       -nan   MPKI: 0
PSCL3 PREFETCH  ACCESS:          0  HIT:          0  MISS:          0  HIT %:       -nan  MISS %:       -nan   MPKI: 0
PSCL3 WRITEBACK ACCESS:          0  HIT:          0  MISS:          0  HIT %:       -nan  MISS %:       -nan   MPKI: 0
PSCL2 TOTAL     ACCESS:    1456946  HIT:    1456802  MISS:        144  HIT %:    99.9901  MISS %: 0.00988369   MPKI: 0.00072
PSCL2 LOAD      ACCESS:          0  HIT:          0  MISS:          0  HIT %:       -nan  MISS %:       -nan   MPKI: 0
PSCL2 RFO       ACCESS:          0  HIT:          0  MISS:          0  HIT %:       -nan  MISS %:       -nan   MPKI: 0
PSCL2 PREFETCH  ACCESS:          0  HIT:          0  MISS:          0  HIT %:       -nan  MISS %:       -nan   MPKI: 0
PSCL2 WRITEBACK ACCESS:          0  HIT:          0  MISS:          0  HIT %:       -nan  MISS %:       -nan   MPKI: 0
LLC TOTAL     ACCESS:    5986866  HIT:    1253701  MISS:    4733165  HIT %:    20.9409  MISS %:    79.0591   MPKI: 23.6658
LLC LOAD      ACCESS:    2145627  HIT:     310048  MISS:    1835579  HIT %:    14.4502  MISS %:    85.5498   MPKI: 9.17789
LLC RFO       ACCESS:     312372  HIT:       9636  MISS:     302736  HIT %:    3.08478  MISS %:    96.9152   MPKI: 1.51368
LLC PREFETCH  ACCESS:    2578441  HIT:      22942  MISS:    2555499  HIT %:   0.889762  MISS %:    99.1102   MPKI: 12.7775
LLC WRITEBACK ACCESS:     791003  HIT:     760159  MISS:      30844  HIT %:    96.1006  MISS %:    3.89935   MPKI: 0.15422

RAW hits: 87
Loads Generated: 56680188
Loads sent to L1D: 56680101
Stores Generated: 1807930
Stores sent to L1D: 1807930

Region of Interest Statistics

CPU 0 cumulative IPC: 0.303945 instructions: 200000001 cycles: 658014328
ITLB TOTAL     ACCESS:   34838063  HIT:   34838054  MISS:          9  HIT %:        100  MISS %: 2.58338e-05   MPKI: 4.5e-05
ITLB LOAD TRANSLATION ACCESS:   34838063  HIT:   34838054  MISS:          9  HIT %:        100  MISS %: 2.58338e-05   MPKI: 4.5e-05
ITLB PREFETCH  REQUESTED:          0  ISSUED:          0  USEFUL:          0  USELESS:          0
ITLB USEFUL LOAD PREFETCHES:          0 PREFETCH ISSUED TO LOWER LEVEL:          0  ACCURACY: -nan
ITLB TIMELY PREFETCHES:          0 LATE PREFETCHES: 0 DROPPED PREFETCHES: 0
ITLB PREFETCHES SAME FILL-ORIGIN LEVEL: 0 DIFFERENT FILL-ORIGIN LEVEL: 0
ITLB AVERAGE MISS LATENCY: 506.222 cycles
ITLB RQ	ACCESS:   35716316	FORWARD:          0	MERGED:     877155	TO_CACHE:   34839161

DTLB TOTAL     ACCESS:   39905294  HIT:   38003161  MISS:    1902133  HIT %:    95.2334  MISS %:    4.76662   MPKI: 9.51066
DTLB LOAD TRANSLATION ACCESS:   39905294  HIT:   38003161  MISS:    1902133  HIT %:    95.2334  MISS %:    4.76662   MPKI: 9.51066
DTLB PREFETCH  REQUESTED:          0  ISSUED:          0  USEFUL:          0  USELESS:          0
DTLB USEFUL LOAD PREFETCHES:          0 PREFETCH ISSUED TO LOWER LEVEL:          0  ACCURACY: -nan
DTLB TIMELY PREFETCHES:          0 LATE PREFETCHES: 0 DROPPED PREFETCHES: 0
DTLB PREFETCHES SAME FILL-ORIGIN LEVEL: 0 DIFFERENT FILL-ORIGIN LEVEL: 0
DTLB AVERAGE MISS LATENCY: 23.0785 cycles
DTLB RQ	ACCESS:   41489819	FORWARD:          0	MERGED:    1527676	TO_CACHE:   39962143

STLB TOTAL     ACCESS:   18843341  HIT:   18132804  MISS:     710537  HIT %:    96.2292  MISS %:    3.77076   MPKI: 3.55268
STLB LOAD TRANSLATION ACCESS:    1902142  HIT:    1194317  MISS:     707825  HIT %:     62.788  MISS %:     37.212   MPKI: 3.53912
STLB TRANSLATION FROM L1D PREFETCHER ACCESS:   16941199  HIT:   16938487  MISS:       2712  HIT %:     99.984  MISS %:  0.0160083   MPKI: 0.01356
STLB PREFETCH  REQUESTED:          0  ISSUED:          0  USEFUL:       2623  USELESS:         92
STLB USEFUL LOAD PREFETCHES:       2623 PREFETCH ISSUED TO LOWER LEVEL:          0  ACCURACY: inf
STLB TIMELY PREFETCHES:       2623 LATE PREFETCHES: 4268 DROPPED PREFETCHES: 749985
STLB PREFETCHES SAME FILL-ORIGIN LEVEL: 0 DIFFERENT FILL-ORIGIN LEVEL: 0
STLB AVERAGE MISS LATENCY: 37.1656 cycles
STLB RQ	ACCESS:   72624896	FORWARD:          0	MERGED:   52971654	TO_CACHE:   19653242

STLB Hit, L1D data hit: 0
STLB Hit, L2C data hit: 0
STLB Hit, LLC data hit: 0
STLB Hit, LLC data miss: 0
STLB STLB hints to L2: 0
L1D TOTAL     ACCESS:   88693689  HIT:   83702856  MISS:    4990833  HIT %:     94.373  MISS %:    5.62704   MPKI: 24.9542
L1D LOAD      ACCESS:   38904810  HIT:   36170995  MISS:    2733815  HIT %:    92.9731  MISS %:    7.02693   MPKI: 13.6691
L1D RFO       ACCESS:    1393986  HIT:    1074146  MISS:     319840  HIT %:    77.0557  MISS %:    22.9443   MPKI: 1.5992
L1D PREFETCH  ACCESS:   48394893  HIT:   46457715  MISS:    1937178  HIT %:    95.9971  MISS %:    4.00286   MPKI: 9.68589
L1D PREFETCH  REQUESTED:  166782076  ISSUED:  166126682  USEFUL:    1675481  USELESS:     261740
L1D USEFUL LOAD PREFETCHES:    1675481 PREFETCH ISSUED TO LOWER LEVEL:   17689294  ACCURACY: 9.47172
L1D TIMELY PREFETCHES:    1675481 LATE PREFETCHES: 34796 DROPPED PREFETCHES: 2279524
L1D PREFETCHES SAME FILL-ORIGIN LEVEL: 1972054 DIFFERENT FILL-ORIGIN LEVEL: 15717240
L1D AVERAGE MISS LATENCY: 266.261 cycles
L1D RQ	ACCESS:   56682572	FORWARD:          0	MERGED:   17000804	TO_CACHE:   39681758
L1D WQ	ACCESS:    1808061	FORWARD:         67	MERGED:          0	TO_CACHE:    1808061
L1D PQ	ACCESS:   95404108	FORWARD:          0	MERGED:   24681477	TO_CACHE:   70722574

L1D UNIQUE REGIONS ACCESSED: 0
L1D REGIONS CONFLICTS: 0
L1D Cross Page Prefetch Requests: 7539761
L1D Same Page Prefetch Requests: 104593875
L1D ROI Sum of L1D PQ occupancy: 985519522
L1D PREFETCHES PUSHED FROM L2C: 0
L1I TOTAL     ACCESS:   35715164  HIT:   35715068  MISS:         96  HIT %:    99.9997  MISS %: 0.000268793   MPKI: 0.00048
L1I LOAD      ACCESS:   35715164  HIT:   35715068  MISS:         96  HIT %:    99.9997  MISS %: 0.000268793   MPKI: 0.00048
L1I PREFETCH  REQUESTED:          0  ISSUED:          0  USEFUL:          0  USELESS:          0
L1I USEFUL LOAD PREFETCHES:          0 PREFETCH ISSUED TO LOWER LEVEL:          0  ACCURACY: -nan
L1I TIMELY PREFETCHES:          0 LATE PREFETCHES: 0 DROPPED PREFETCHES: 0
L1I PREFETCHES SAME FILL-ORIGIN LEVEL: 0 DIFFERENT FILL-ORIGIN LEVEL: 0
L1I AVERAGE MISS LATENCY: 286.104 cycles
L1I RQ	ACCESS:   51337017	FORWARD:          0	MERGED:   15620701	TO_CACHE:   35716316

BTB TOTAL     ACCESS:   33115744  HIT:   33115618  MISS:        126  HIT %:    99.9996  MISS %: 0.000380484   MPKI: 0.00063
BTB BRANCH_DIRECT_JUMP	ACCESS:    1271126  HIT:    1271106  MISS:         20
BTB BRANCH_INDIRECT	ACCESS:          0  HIT:          0  MISS:          0
BTB BRANCH_CONDITIONAL	ACCESS:   31844581  HIT:   31844504  MISS:         77
BTB BRANCH_DIRECT_CALL	ACCESS:         19  HIT:          5  MISS:         14
BTB BRANCH_INDIRECT_CALL	ACCESS:          0  HIT:          0  MISS:          0
BTB BRANCH_RETURN	ACCESS:         18  HIT:          3  MISS:         15
BTB BRANCH_OTHER ACCESS:          0  HIT:          0  MISS:          0

L2C TOTAL     ACCESS:   20198807  HIT:   14948354  MISS:    5250453  HIT %:    74.0061  MISS %:    25.9939   MPKI: 26.2523
L2C LOAD      ACCESS:    2699114  HIT:     505638  MISS:    2193476  HIT %:    18.7335  MISS %:    81.2665   MPKI: 10.9674
L2C DATA LOAD MPKI: 10.9669
L2C INSTRUCTION LOAD MPKI: 0.00048
L2C RFO       ACCESS:     319837  HIT:       7429  MISS:     312408  HIT %:    2.32275  MISS %:    97.6773   MPKI: 1.56204
L2C PREFETCH  ACCESS:   14905841  HIT:   12375016  MISS:    2530825  HIT %:    83.0213  MISS %:    16.9787   MPKI: 12.6541
L2C DATA PREFETCH MPKI: 12.6541
L2C INSTRUCTION PREFETCH MPKI: 0
L2C WRITEBACK ACCESS:     808517  HIT:     746756  MISS:      61761  HIT %:    92.3612  MISS %:     7.6388   MPKI: 0.308805
L2C LOAD TRANSLATION ACCESS:     707888  HIT:     561114  MISS:     146774  HIT %:    79.2659  MISS %:    20.7341   MPKI: 0.73387
L2C TRANSLATION FROM L1D PREFETCHER ACCESS:     757610  HIT:     752401  MISS:       5209  HIT %:    99.3124  MISS %:   0.687557   MPKI: 0.026045
L2C PREFETCH  REQUESTED:          0  ISSUED:          0  USEFUL:     361207  USELESS:    2170854
L2C USEFUL LOAD PREFETCHES:     361207 PREFETCH ISSUED TO LOWER LEVEL:    2578078  ACCURACY: 14.0107
L2C TIMELY PREFETCHES:     361207 LATE PREFETCHES: 47105 DROPPED PREFETCHES: 0
L2C PREFETCHES SAME FILL-ORIGIN LEVEL: 1528446 DIFFERENT FILL-ORIGIN LEVEL: 0
L2C AVERAGE MISS LATENCY: 328.392 cycles
L2C RQ	ACCESS:    4484880	FORWARD:          0	MERGED:          0	TO_CACHE:    4484875
L2C WQ	ACCESS:     808518	FORWARD:          5	MERGED:          0	TO_CACHE:     808518
L2C PQ	ACCESS:   17689293	FORWARD:          0	MERGED:      36573	TO_CACHE:   17652720

L2C Instructions Evicting Data 95
L2C Translations Evicting Data 148432
L2C Data Evicting Data 4889848
L2C Instructions Evicting Instructions 0
L2C Translations Evicting Instructions 0
L2C Data Evicting Instructions 96
L2C Instructions Evicting Translations 1
L2C Translations Evicting Translations 3650
L2C Data Evicting Translations 147040
L2C Dense regions hint from L2: 0
PSCL5 TOTAL     ACCESS:    1464789  HIT:    1464789  MISS:          0  HIT %:        100  MISS %:          0   MPKI: 0
PSCL5 LOAD TRANSLATION ACCESS:     707824  HIT:     707824  MISS:          0  HIT %:        100  MISS %:          0   MPKI: 0
PSCL5 TRANSLATION FROM L1D PREFETCHER ACCESS:     756965  HIT:     756965  MISS:          0  HIT %:        100  MISS %:          0   MPKI: 0
PSCL5 PREFETCH  REQUESTED:          0  ISSUED:          0  USEFUL:          0  USELESS:          0
PSCL5 USEFUL LOAD PREFETCHES:          0 PREFETCH ISSUED TO LOWER LEVEL:          0  ACCURACY: -nan
PSCL5 TIMELY PREFETCHES:          0 LATE PREFETCHES: 0 DROPPED PREFETCHES: 0
PSCL5 PREFETCHES SAME FILL-ORIGIN LEVEL: 0 DIFFERENT FILL-ORIGIN LEVEL: 0

PSCL4 TOTAL     ACCESS:    1464789  HIT:    1464789  MISS:          0  HIT %:        100  MISS %:          0   MPKI: 0
PSCL4 LOAD TRANSLATION ACCESS:     707824  HIT:     707824  MISS:          0  HIT %:        100  MISS %:          0   MPKI: 0
PSCL4 TRANSLATION FROM L1D PREFETCHER ACCESS:     756965  HIT:     756965  MISS:          0  HIT %:        100  MISS %:          0   MPKI: 0
PSCL4 PREFETCH  REQUESTED:          0  ISSUED:          0  USEFUL:          0  USELESS:          0
PSCL4 USEFUL LOAD PREFETCHES:          0 PREFETCH ISSUED TO LOWER LEVEL:          0  ACCURACY: -nan
PSCL4 TIMELY PREFETCHES:          0 LATE PREFETCHES: 0 DROPPED PREFETCHES: 0
PSCL4 PREFETCHES SAME FILL-ORIGIN LEVEL: 0 DIFFERENT FILL-ORIGIN LEVEL: 0

PSCL3 TOTAL     ACCESS:    1464789  HIT:    1464788  MISS:          1  HIT %:    99.9999  MISS %: 6.82692e-05   MPKI: 5e-06
PSCL3 LOAD TRANSLATION ACCESS:     707824  HIT:     707823  MISS:          1  HIT %:    99.9999  MISS %: 0.000141278   MPKI: 5e-06
PSCL3 TRANSLATION FROM L1D PREFETCHER ACCESS:     756965  HIT:     756965  MISS:          0  HIT %:        100  MISS %:          0   MPKI: 0
PSCL3 PREFETCH  REQUESTED:          0  ISSUED:          0  USEFUL:          0  USELESS:          0
PSCL3 USEFUL LOAD PREFETCHES:          0 PREFETCH ISSUED TO LOWER LEVEL:          0  ACCURACY: -nan
PSCL3 TIMELY PREFETCHES:          0 LATE PREFETCHES: 0 DROPPED PREFETCHES: 0
PSCL3 PREFETCHES SAME FILL-ORIGIN LEVEL: 0 DIFFERENT FILL-ORIGIN LEVEL: 0

PSCL2 TOTAL     ACCESS:    1463010  HIT:    1462861  MISS:        149  HIT %:    99.9898  MISS %:  0.0101845   MPKI: 0.000745
PSCL2 LOAD TRANSLATION ACCESS:     707825  HIT:     707676  MISS:        149  HIT %:    99.9789  MISS %:  0.0210504   MPKI: 0.000745
PSCL2 TRANSLATION FROM L1D PREFETCHER ACCESS:     755185  HIT:     755185  MISS:          0  HIT %:        100  MISS %:          0   MPKI: 0
PSCL2 PREFETCH  REQUESTED:          0  ISSUED:          0  USEFUL:          0  USELESS:          0
PSCL2 USEFUL LOAD PREFETCHES:          0 PREFETCH ISSUED TO LOWER LEVEL:          0  ACCURACY: -nan
PSCL2 TIMELY PREFETCHES:          0 LATE PREFETCHES: 0 DROPPED PREFETCHES: 0
PSCL2 PREFETCHES SAME FILL-ORIGIN LEVEL: 0 DIFFERENT FILL-ORIGIN LEVEL: 0

LLC TOTAL     ACCESS:    5979820  HIT:    1246227  MISS:    4733593  HIT %:    20.8405  MISS %:    79.1595   MPKI: 23.668
LLC LOAD      ACCESS:    2146371  HIT:     309472  MISS:    1836899  HIT %:    14.4184  MISS %:    85.5816   MPKI: 9.18449
LLC RFO       ACCESS:     312408  HIT:       9838  MISS:     302570  HIT %:    3.14909  MISS %:    96.8509   MPKI: 1.51285
LLC PREFETCH  ACCESS:    2577930  HIT:      22851  MISS:    2555079  HIT %:   0.886409  MISS %:    99.1136   MPKI: 12.7754
LLC WRITEBACK ACCESS:     791128  HIT:     760804  MISS:      30324  HIT %:     96.167  MISS %:    3.83301   MPKI: 0.15162
LLC LOAD TRANSLATION ACCESS:     146774  HIT:     142922  MISS:       3852  HIT %:    97.3756  MISS %:    2.62444   MPKI: 0.01926
LLC TRANSLATION FROM L1D PREFETCHER ACCESS:       5209  HIT:        340  MISS:       4869  HIT %:    6.52716  MISS %:    93.4728   MPKI: 0.024345
LLC PREFETCH  REQUESTED:          0  ISSUED:          0  USEFUL:       6870  USELESS:   10184146
LLC USEFUL LOAD PREFETCHES:       6870 PREFETCH ISSUED TO LOWER LEVEL:   16047332  ACCURACY: 0.0428109
LLC TIMELY PREFETCHES:       6870 LATE PREFETCHES: 0 DROPPED PREFETCHES: 0
LLC PREFETCHES SAME FILL-ORIGIN LEVEL: 0 DIFFERENT FILL-ORIGIN LEVEL: 0
LLC AVERAGE MISS LATENCY: 1331.85 cycles
LLC RQ	ACCESS:   10452696	FORWARD:          0	MERGED:          0	TO_CACHE:   10452696
LLC WQ	ACCESS:    3164221	FORWARD:          0	MERGED:          0	TO_CACHE:    3164221
LLC PQ	ACCESS:   10320595	FORWARD:          0	MERGED:          0	TO_CACHE:   10320595

LLC Dense regions hint to LLC: 0

RAW hits: 87
Loads Generated: 56680205
Loads sent to L1D: 56680118
Stores Generated: 1807930
Stores sent to L1D: 1807930
Major fault: 0 Minor fault: 66733
Allocated PAGES: 266932

CPU 1 cumulative IPC: 0.304313 instructions: 200000000 cycles: 657217156
ITLB TOTAL     ACCESS:   34838137  HIT:   34838128  MISS:          9  HIT %:        100  MISS %: 2.58338e-05   MPKI: 4.5e-05
ITLB LOAD TRANSLATION ACCESS:   34838137  HIT:   34838128  MISS:          9  HIT %:        100  MISS %: 2.58338e-05   MPKI: 4.5e-05
ITLB PREFETCH  REQUESTED:          0  ISSUED:          0  USEFUL:          0  USELESS:          0
ITLB USEFUL LOAD PREFETCHES:          0 PREFETCH ISSUED TO LOWER LEVEL:          0  ACCURACY: -nan
ITLB TIMELY PREFETCHES:          0 LATE PREFETCHES: 0 DROPPED PREFETCHES: 0
ITLB PREFETCHES SAME FILL-ORIGIN LEVEL: 0 DIFFERENT FILL-ORIGIN LEVEL: 0
ITLB AVERAGE MISS LATENCY: 618.778 cycles
ITLB RQ	ACCESS:   35744683	FORWARD:          0	MERGED:     877349	TO_CACHE:   34867334

DTLB TOTAL     ACCESS:   39882002  HIT:   37979876  MISS:    1902126  HIT %:    95.2306  MISS %:    4.76938   MPKI: 9.51063
DTLB LOAD TRANSLATION ACCESS:   39882002  HIT:   37979876  MISS:    1902126  HIT %:    95.2306  MISS %:    4.76938   MPKI: 9.51063
DTLB PREFETCH  REQUESTED:          0  ISSUED:          0  USEFUL:          0  USELESS:          0
DTLB USEFUL LOAD PREFETCHES:          0 PREFETCH ISSUED TO LOWER LEVEL:          0  ACCURACY: -nan
DTLB TIMELY PREFETCHES:          0 LATE PREFETCHES: 0 DROPPED PREFETCHES: 0
DTLB PREFETCHES SAME FILL-ORIGIN LEVEL: 0 DIFFERENT FILL-ORIGIN LEVEL: 0
DTLB AVERAGE MISS LATENCY: 23.1572 cycles
DTLB RQ	ACCESS:   41492066	FORWARD:          0	MERGED:    1519437	TO_CACHE:   39972629

STLB TOTAL     ACCESS:   18872716  HIT:   18162169  MISS:     710547  HIT %:    96.2351  MISS %:    3.76494   MPKI: 3.55274
STLB LOAD TRANSLATION ACCESS:    1902135  HIT:    1194325  MISS:     707810  HIT %:    62.7887  MISS %:    37.2113   MPKI: 3.53905
STLB TRANSLATION FROM L1D PREFETCHER ACCESS:   16970581  HIT:   16967844  MISS:       2737  HIT %:    99.9839  MISS %:  0.0161279   MPKI: 0.013685
STLB PREFETCH  REQUESTED:          0  ISSUED:          0  USEFUL:       2665  USELESS:        106
STLB USEFUL LOAD PREFETCHES:       2665 PREFETCH ISSUED TO LOWER LEVEL:          0  ACCURACY: inf
STLB TIMELY PREFETCHES:       2665 LATE PREFETCHES: 4328 DROPPED PREFETCHES: 735384
STLB PREFETCHES SAME FILL-ORIGIN LEVEL: 0 DIFFERENT FILL-ORIGIN LEVEL: 0
STLB AVERAGE MISS LATENCY: 37.3012 cycles
STLB RQ	ACCESS:   73118524	FORWARD:          0	MERGED:   53436062	TO_CACHE:   19682462

STLB Hit, L1D data hit: 0
STLB Hit, L2C data hit: 0
STLB Hit, LLC data hit: 0
STLB Hit, LLC data miss: 0
STLB STLB hints to L2: 0
L1D TOTAL     ACCESS:   89252563  HIT:   84260028  MISS:    4992535  HIT %:    94.4063  MISS %:    5.59372   MPKI: 24.9627
L1D LOAD      ACCESS:   38874868  HIT:   36144273  MISS:    2730595  HIT %:    92.9759  MISS %:    7.02406   MPKI: 13.653
L1D RFO       ACCESS:    1393277  HIT:    1073436  MISS:     319841  HIT %:     77.044  MISS %:     22.956   MPKI: 1.5992
L1D PREFETCH  ACCESS:   48984418  HIT:   47042319  MISS:    1942099  HIT %:    96.0353  MISS %:    3.96473   MPKI: 9.71049
L1D PREFETCH  REQUESTED:  168002882  ISSUED:  167349059  USEFUL:    1679093  USELESS:     263583
L1D USEFUL LOAD PREFETCHES:    1679093 PREFETCH ISSUED TO LOWER LEVEL:   17447616  ACCURACY: 9.62362
L1D TIMELY PREFETCHES:    1679093 LATE PREFETCHES: 35130 DROPPED PREFETCHES: 2263231
L1D PREFETCHES SAME FILL-ORIGIN LEVEL: 1977801 DIFFERENT FILL-ORIGIN LEVEL: 15469815
L1D AVERAGE MISS LATENCY: 266.66 cycles
L1D RQ	ACCESS:   56742104	FORWARD:          0	MERGED:   17058657	TO_CACHE:   39683437
L1D WQ	ACCESS:    1808629	FORWARD:         65	MERGED:          0	TO_CACHE:    1808629
L1D PQ	ACCESS:   96136995	FORWARD:          0	MERGED:   24924876	TO_CACHE:   71212064

L1D UNIQUE REGIONS ACCESSED: 0
L1D REGIONS CONFLICTS: 0
L1D Cross Page Prefetch Requests: 7588637
L1D Same Page Prefetch Requests: 105386221
L1D ROI Sum of L1D PQ occupancy: 990334230
L1D PREFETCHES PUSHED FROM L2C: 0
L1I TOTAL     ACCESS:   35715240  HIT:   35715144  MISS:         96  HIT %:    99.9997  MISS %: 0.000268793   MPKI: 0.00048
L1I LOAD      ACCESS:   35715240  HIT:   35715144  MISS:         96  HIT %:    99.9997  MISS %: 0.000268793   MPKI: 0.00048
L1I PREFETCH  REQUESTED:          0  ISSUED:          0  USEFUL:          0  USELESS:          0
L1I USEFUL LOAD PREFETCHES:          0 PREFETCH ISSUED TO LOWER LEVEL:          0  ACCURACY: -nan
L1I TIMELY PREFETCHES:          0 LATE PREFETCHES: 0 DROPPED PREFETCHES: 0
L1I PREFETCHES SAME FILL-ORIGIN LEVEL: 0 DIFFERENT FILL-ORIGIN LEVEL: 0
L1I AVERAGE MISS LATENCY: 350.323 cycles
L1I RQ	ACCESS:   51368973	FORWARD:          0	MERGED:   15624290	TO_CACHE:   35744683

BTB TOTAL     ACCESS:   33115689  HIT:   33115563  MISS:        126  HIT %:    99.9996  MISS %: 0.000380484   MPKI: 0.00063
BTB BRANCH_DIRECT_JUMP	ACCESS:    1271126  HIT:    1271106  MISS:         20
BTB BRANCH_INDIRECT	ACCESS:          0  HIT:          0  MISS:          0
BTB BRANCH_CONDITIONAL	ACCESS:   31844526  HIT:   31844449  MISS:         77
BTB BRANCH_DIRECT_CALL	ACCESS:         19  HIT:          5  MISS:         14
BTB BRANCH_INDIRECT_CALL	ACCESS:          0  HIT:          0  MISS:          0
BTB BRANCH_RETURN	ACCESS:         18  HIT:          3  MISS:         15
BTB BRANCH_OTHER ACCESS:          0  HIT:          0  MISS:          0

L2C TOTAL     ACCESS:   19947589  HIT:   14697560  MISS:    5250029  HIT %:    73.6809  MISS %:    26.3191   MPKI: 26.2501
L2C LOAD      ACCESS:    2695567  HIT:     503988  MISS:    2191579  HIT %:    18.6969  MISS %:    81.3031   MPKI: 10.9579
L2C DATA LOAD MPKI: 10.9574
L2C INSTRUCTION LOAD MPKI: 0.00048
L2C RFO       ACCESS:     319838  HIT:       7456  MISS:     312382  HIT %:    2.33118  MISS %:    97.6688   MPKI: 1.56191
L2C PREFETCH  ACCESS:   14672702  HIT:   12138433  MISS:    2534269  HIT %:     82.728  MISS %:     17.272   MPKI: 12.6713
L2C DATA PREFETCH MPKI: 12.6713
L2C INSTRUCTION PREFETCH MPKI: 0
L2C WRITEBACK ACCESS:     808516  HIT:     747535  MISS:      60981  HIT %:    92.4577  MISS %:    7.54234   MPKI: 0.304905
L2C LOAD TRANSLATION ACCESS:     707871  HIT:     562296  MISS:     145575  HIT %:    79.4348  MISS %:    20.5652   MPKI: 0.727875
L2C TRANSLATION FROM L1D PREFETCHER ACCESS:     743095  HIT:     737852  MISS:       5243  HIT %:    99.2944  MISS %:   0.705563   MPKI: 0.026215
L2C PREFETCH  REQUESTED:          0  ISSUED:          0  USEFUL:     360058  USELESS:    2181550
L2C USEFUL LOAD PREFETCHES:     360058 PREFETCH ISSUED TO LOWER LEVEL:    2584265  ACCURACY: 13.9327
L2C TIMELY PREFETCHES:     360058 LATE PREFETCHES: 47972 DROPPED PREFETCHES: 0
L2C PREFETCHES SAME FILL-ORIGIN LEVEL: 1535098 DIFFERENT FILL-ORIGIN LEVEL: 0
L2C AVERAGE MISS LATENCY: 329.489 cycles
L2C RQ	ACCESS:    4474688	FORWARD:          0	MERGED:          0	TO_CACHE:    4474684
L2C WQ	ACCESS:     808827	FORWARD:          4	MERGED:          0	TO_CACHE:     808827
L2C PQ	ACCESS:   17447049	FORWARD:          0	MERGED:      14387	TO_CACHE:   17432662

L2C Instructions Evicting Data 96
L2C Translations Evicting Data 148329
L2C Data Evicting Data 4898646
L2C Instructions Evicting Instructions 0
L2C Translations Evicting Instructions 1
L2C Data Evicting Instructions 94
L2C Instructions Evicting Translations 0
L2C Translations Evicting Translations 2984
L2C Data Evicting Translations 146700
L2C Dense regions hint from L2: 0
PSCL5 TOTAL     ACCESS:    1450256  HIT:    1450256  MISS:          0  HIT %:        100  MISS %:          0   MPKI: 0
PSCL5 LOAD TRANSLATION ACCESS:     707807  HIT:     707807  MISS:          0  HIT %:        100  MISS %:          0   MPKI: 0
PSCL5 TRANSLATION FROM L1D PREFETCHER ACCESS:     742449  HIT:     742449  MISS:          0  HIT %:        100  MISS %:          0   MPKI: 0
PSCL5 PREFETCH  REQUESTED:          0  ISSUED:          0  USEFUL:          0  USELESS:          0
PSCL5 USEFUL LOAD PREFETCHES:          0 PREFETCH ISSUED TO LOWER LEVEL:          0  ACCURACY: -nan
PSCL5 TIMELY PREFETCHES:          0 LATE PREFETCHES: 0 DROPPED PREFETCHES: 0
PSCL5 PREFETCHES SAME FILL-ORIGIN LEVEL: 0 DIFFERENT FILL-ORIGIN LEVEL: 0

PSCL4 TOTAL     ACCESS:    1450256  HIT:    1450256  MISS:          0  HIT %:        100  MISS %:          0   MPKI: 0
PSCL4 LOAD TRANSLATION ACCESS:     707807  HIT:     707807  MISS:          0  HIT %:        100  MISS %:          0   MPKI: 0
PSCL4 TRANSLATION FROM L1D PREFETCHER ACCESS:     742449  HIT:     742449  MISS:          0  HIT %:        100  MISS %:          0   MPKI: 0
PSCL4 PREFETCH  REQUESTED:          0  ISSUED:          0  USEFUL:          0  USELESS:          0
PSCL4 USEFUL LOAD PREFETCHES:          0 PREFETCH ISSUED TO LOWER LEVEL:          0  ACCURACY: -nan
PSCL4 TIMELY PREFETCHES:          0 LATE PREFETCHES: 0 DROPPED PREFETCHES: 0
PSCL4 PREFETCHES SAME FILL-ORIGIN LEVEL: 0 DIFFERENT FILL-ORIGIN LEVEL: 0

PSCL3 TOTAL     ACCESS:    1450256  HIT:    1450255  MISS:          1  HIT %:    99.9999  MISS %: 6.89533e-05   MPKI: 5e-06
PSCL3 LOAD TRANSLATION ACCESS:     707807  HIT:     707806  MISS:          1  HIT %:    99.9999  MISS %: 0.000141281   MPKI: 5e-06
PSCL3 TRANSLATION FROM L1D PREFETCHER ACCESS:     742449  HIT:     742449  MISS:          0  HIT %:        100  MISS %:          0   MPKI: 0
PSCL3 PREFETCH  REQUESTED:          0  ISSUED:          0  USEFUL:          0  USELESS:          0
PSCL3 USEFUL LOAD PREFETCHES:          0 PREFETCH ISSUED TO LOWER LEVEL:          0  ACCURACY: -nan
PSCL3 TIMELY PREFETCHES:          0 LATE PREFETCHES: 0 DROPPED PREFETCHES: 0
PSCL3 PREFETCHES SAME FILL-ORIGIN LEVEL: 0 DIFFERENT FILL-ORIGIN LEVEL: 0

PSCL2 TOTAL     ACCESS:    1448549  HIT:    1448400  MISS:        149  HIT %:    99.9897  MISS %:  0.0102862   MPKI: 0.000745
PSCL2 LOAD TRANSLATION ACCESS:     707808  HIT:     707659  MISS:        149  HIT %:    99.9789  MISS %:  0.0210509   MPKI: 0.000745
PSCL2 TRANSLATION FROM L1D PREFETCHER ACCESS:     740741  HIT:     740741  MISS:          0  HIT %:        100  MISS %:          0   MPKI: 0
PSCL2 PREFETCH  REQUESTED:          0  ISSUED:          0  USEFUL:          0  USELESS:          0
PSCL2 USEFUL LOAD PREFETCHES:          0 PREFETCH ISSUED TO LOWER LEVEL:          0  ACCURACY: -nan
PSCL2 TIMELY PREFETCHES:          0 LATE PREFETCHES: 0 DROPPED PREFETCHES: 0
PSCL2 PREFETCHES SAME FILL-ORIGIN LEVEL: 0 DIFFERENT FILL-ORIGIN LEVEL: 0

LLC TOTAL     ACCESS:    5980028  HIT:    1245906  MISS:    4734122  HIT %:    20.8345  MISS %:    79.1655   MPKI: 23.6706
LLC LOAD      ACCESS:    2143770  HIT:     310622  MISS:    1833148  HIT %:    14.4895  MISS %:    85.5105   MPKI: 9.16574
LLC RFO       ACCESS:     312382  HIT:       9730  MISS:     302652  HIT %:    3.11478  MISS %:    96.8852   MPKI: 1.51326
LLC PREFETCH  ACCESS:    2582078  HIT:      22941  MISS:    2559137  HIT %:    0.88847  MISS %:    99.1115   MPKI: 12.7957
LLC WRITEBACK ACCESS:     790980  HIT:     760375  MISS:      30605  HIT %:    96.1307  MISS %:    3.86925   MPKI: 0.153025
LLC LOAD TRANSLATION ACCESS:     145575  HIT:     141880  MISS:       3695  HIT %:    97.4618  MISS %:    2.53821   MPKI: 0.018475
LLC TRANSLATION FROM L1D PREFETCHER ACCESS:       5243  HIT:        358  MISS:       4885  HIT %:    6.82815  MISS %:    93.1718   MPKI: 0.024425
LLC PREFETCH  REQUESTED:          0  ISSUED:          0  USEFUL:       6870  USELESS:   10184146
LLC USEFUL LOAD PREFETCHES:       6870 PREFETCH ISSUED TO LOWER LEVEL:   16047332  ACCURACY: 0.0428109
LLC TIMELY PREFETCHES:       6870 LATE PREFETCHES: 0 DROPPED PREFETCHES: 0
LLC PREFETCHES SAME FILL-ORIGIN LEVEL: 0 DIFFERENT FILL-ORIGIN LEVEL: 0
LLC AVERAGE MISS LATENCY: 1331.7 cycles
LLC RQ	ACCESS:   10452696	FORWARD:          0	MERGED:          0	TO_CACHE:   10452696
LLC WQ	ACCESS:    3164221	FORWARD:          0	MERGED:          0	TO_CACHE:    3164221
LLC PQ	ACCESS:   10320595	FORWARD:          0	MERGED:          0	TO_CACHE:   10320595

LLC Dense regions hint to LLC: 0

RAW hits: 86
Loads Generated: 56680178
Loads sent to L1D: 56680092
Stores Generated: 1807930
Stores sent to L1D: 1807930
Major fault: 0 Minor fault: 66733
Allocated PAGES: 266932

CPU 2 cumulative IPC: 0.303955 instructions: 200000000 cycles: 657992325
ITLB TOTAL     ACCESS:   34837396  HIT:   34837387  MISS:          9  HIT %:        100  MISS %: 2.58343e-05   MPKI: 4.5e-05
ITLB LOAD TRANSLATION ACCESS:   34837396  HIT:   34837387  MISS:          9  HIT %:        100  MISS %: 2.58343e-05   MPKI: 4.5e-05
ITLB PREFETCH  REQUESTED:          0  ISSUED:          0  USEFUL:          0  USELESS:          0
ITLB USEFUL LOAD PREFETCHES:          0 PREFETCH ISSUED TO LOWER LEVEL:          0  ACCURACY: -nan
ITLB TIMELY PREFETCHES:          0 LATE PREFETCHES: 0 DROPPED PREFETCHES: 0
ITLB PREFETCHES SAME FILL-ORIGIN LEVEL: 0 DIFFERENT FILL-ORIGIN LEVEL: 0
ITLB AVERAGE MISS LATENCY: 506.556 cycles
ITLB RQ	ACCESS:   35715824	FORWARD:          0	MERGED:     877156	TO_CACHE:   34838668

DTLB TOTAL     ACCESS:   39912094  HIT:   38009993  MISS:    1902101  HIT %:    95.2343  MISS %:    4.76573   MPKI: 9.51051
DTLB LOAD TRANSLATION ACCESS:   39912094  HIT:   38009993  MISS:    1902101  HIT %:    95.2343  MISS %:    4.76573   MPKI: 9.51051
DTLB PREFETCH  REQUESTED:          0  ISSUED:          0  USEFUL:          0  USELESS:          0
DTLB USEFUL LOAD PREFETCHES:          0 PREFETCH ISSUED TO LOWER LEVEL:          0  ACCURACY: -nan
DTLB TIMELY PREFETCHES:          0 LATE PREFETCHES: 0 DROPPED PREFETCHES: 0
DTLB PREFETCHES SAME FILL-ORIGIN LEVEL: 0 DIFFERENT FILL-ORIGIN LEVEL: 0
DTLB AVERAGE MISS LATENCY: 23.0948 cycles
DTLB RQ	ACCESS:   41495663	FORWARD:          0	MERGED:    1526601	TO_CACHE:   39969062

STLB TOTAL     ACCESS:   18809314  HIT:   18098762  MISS:     710552  HIT %:    96.2223  MISS %:    3.77766   MPKI: 3.55276
STLB LOAD TRANSLATION ACCESS:    1902110  HIT:    1194294  MISS:     707816  HIT %:    62.7879  MISS %:    37.2121   MPKI: 3.53908
STLB TRANSLATION FROM L1D PREFETCHER ACCESS:   16907204  HIT:   16904468  MISS:       2736  HIT %:    99.9838  MISS %:  0.0161825   MPKI: 0.01368
STLB PREFETCH  REQUESTED:          0  ISSUED:          0  USEFUL:       2638  USELESS:        100
STLB USEFUL LOAD PREFETCHES:       2638 PREFETCH ISSUED TO LOWER LEVEL:          0  ACCURACY: inf
STLB TIMELY PREFETCHES:       2638 LATE PREFETCHES: 4270 DROPPED PREFETCHES: 750274
STLB PREFETCHES SAME FILL-ORIGIN LEVEL: 0 DIFFERENT FILL-ORIGIN LEVEL: 0
STLB AVERAGE MISS LATENCY: 37.1932 cycles
STLB RQ	ACCESS:   73080788	FORWARD:          0	MERGED:   53461415	TO_CACHE:   19619373

STLB Hit, L1D data hit: 0
STLB Hit, L2C data hit: 0
STLB Hit, LLC data hit: 0
STLB Hit, LLC data miss: 0
STLB STLB hints to L2: 0
L1D TOTAL     ACCESS:   89611740  HIT:   84619864  MISS:    4991876  HIT %:    94.4294  MISS %:    5.57056   MPKI: 24.9594
L1D LOAD      ACCESS:   38920534  HIT:   36193218  MISS:    2727316  HIT %:    92.9926  MISS %:     7.0074   MPKI: 13.6366
L1D RFO       ACCESS:    1393835  HIT:    1073988  MISS:     319847  HIT %:    77.0527  MISS %:    22.9473   MPKI: 1.59923
L1D PREFETCH  ACCESS:   49297371  HIT:   47352658  MISS:    1944713  HIT %:    96.0551  MISS %:    3.94486   MPKI: 9.72357
L1D PREFETCH  REQUESTED:  168007419  ISSUED:  167344363  USEFUL:    1682006  USELESS:     262779
L1D USEFUL LOAD PREFETCHES:    1682006 PREFETCH ISSUED TO LOWER LEVEL:   17132355  ACCURACY: 9.81772
L1D TIMELY PREFETCHES:    1682006 LATE PREFETCHES: 34982 DROPPED PREFETCHES: 2287799
L1D PREFETCHES SAME FILL-ORIGIN LEVEL: 1979813 DIFFERENT FILL-ORIGIN LEVEL: 15152542
L1D AVERAGE MISS LATENCY: 266.828 cycles
L1D RQ	ACCESS:   56682831	FORWARD:          0	MERGED:   16995228	TO_CACHE:   39687593
L1D WQ	ACCESS:    1808070	FORWARD:         67	MERGED:          0	TO_CACHE:    1808070
L1D PQ	ACCESS:   96165901	FORWARD:          0	MERGED:   24987382	TO_CACHE:   71178462

L1D UNIQUE REGIONS ACCESSED: 0
L1D REGIONS CONFLICTS: 0
L1D Cross Page Prefetch Requests: 7617822
L1D Same Page Prefetch Requests: 105346887
L1D ROI Sum of L1D PQ occupancy: 991088901
L1D PREFETCHES PUSHED FROM L2C: 0
L1I TOTAL     ACCESS:   35714496  HIT:   35714400  MISS:         96  HIT %:    99.9997  MISS %: 0.000268798   MPKI: 0.00048
L1I LOAD      ACCESS:   35714496  HIT:   35714400  MISS:         96  HIT %:    99.9997  MISS %: 0.000268798   MPKI: 0.00048
L1I PREFETCH  REQUESTED:          0  ISSUED:          0  USEFUL:          0  USELESS:          0
L1I USEFUL LOAD PREFETCHES:          0 PREFETCH ISSUED TO LOWER LEVEL:          0  ACCURACY: -nan
L1I TIMELY PREFETCHES:          0 LATE PREFETCHES: 0 DROPPED PREFETCHES: 0
L1I PREFETCHES SAME FILL-ORIGIN LEVEL: 0 DIFFERENT FILL-ORIGIN LEVEL: 0
L1I AVERAGE MISS LATENCY: 314.292 cycles
L1I RQ	ACCESS:   51336972	FORWARD:          0	MERGED:   15621148	TO_CACHE:   35715824

BTB TOTAL     ACCESS:   33115686  HIT:   33115559  MISS:        127  HIT %:    99.9996  MISS %: 0.000383504   MPKI: 0.000635
BTB BRANCH_DIRECT_JUMP	ACCESS:    1271126  HIT:    1271106  MISS:         20
BTB BRANCH_INDIRECT	ACCESS:          0  HIT:          0  MISS:          0
BTB BRANCH_CONDITIONAL	ACCESS:   31844523  HIT:   31844445  MISS:         78
BTB BRANCH_DIRECT_CALL	ACCESS:         19  HIT:          5  MISS:         14
BTB BRANCH_INDIRECT_CALL	ACCESS:          0  HIT:          0  MISS:          0
BTB BRANCH_RETURN	ACCESS:         18  HIT:          3  MISS:         15
BTB BRANCH_OTHER ACCESS:          0  HIT:          0  MISS:          0

L2C TOTAL     ACCESS:   19732481  HIT:   14479326  MISS:    5253155  HIT %:    73.3781  MISS %:    26.6219   MPKI: 26.2658
L2C LOAD      ACCESS:    2692430  HIT:     500217  MISS:    2192213  HIT %:    18.5786  MISS %:    81.4214   MPKI: 10.9611
L2C DATA LOAD MPKI: 10.9606
L2C INSTRUCTION LOAD MPKI: 0.00048
L2C RFO       ACCESS:     319844  HIT:       7430  MISS:     312414  HIT %:    2.32301  MISS %:     97.677   MPKI: 1.56207
L2C PREFETCH  ACCESS:   14445886  HIT:   11913236  MISS:    2532650  HIT %:     82.468  MISS %:     17.532   MPKI: 12.6632
L2C DATA PREFETCH MPKI: 12.6632
L2C INSTRUCTION PREFETCH MPKI: 0
L2C WRITEBACK ACCESS:     808529  HIT:     746240  MISS:      62289  HIT %:     92.296  MISS %:    7.70399   MPKI: 0.311445
L2C LOAD TRANSLATION ACCESS:     707869  HIT:     559527  MISS:     148342  HIT %:    79.0439  MISS %:    20.9561   MPKI: 0.74171
L2C TRANSLATION FROM L1D PREFETCHER ACCESS:     757923  HIT:     752676  MISS:       5247  HIT %:    99.3077  MISS %:   0.692287   MPKI: 0.026235
L2C PREFETCH  REQUESTED:          0  ISSUED:          0  USEFUL:     355435  USELESS:    2178179
L2C USEFUL LOAD PREFETCHES:     355435 PREFETCH ISSUED TO LOWER LEVEL:    2579811  ACCURACY: 13.7776
L2C TIMELY PREFETCHES:     355435 LATE PREFETCHES: 47010 DROPPED PREFETCHES: 0
L2C PREFETCHES SAME FILL-ORIGIN LEVEL: 1527490 DIFFERENT FILL-ORIGIN LEVEL: 0
L2C AVERAGE MISS LATENCY: 328.885 cycles
L2C RQ	ACCESS:    4478551	FORWARD:          0	MERGED:          0	TO_CACHE:    4478547
L2C WQ	ACCESS:     808530	FORWARD:          4	MERGED:          0	TO_CACHE:     808530
L2C PQ	ACCESS:   17132355	FORWARD:          0	MERGED:      12765	TO_CACHE:   17119590

L2C Instructions Evicting Data 96
L2C Translations Evicting Data 147342
L2C Data Evicting Data 4891658
L2C Instructions Evicting Instructions 0
L2C Translations Evicting Instructions 0
L2C Data Evicting Instructions 95
L2C Instructions Evicting Translations 0
L2C Translations Evicting Translations 6375
L2C Data Evicting Translations 145847
L2C Dense regions hint from L2: 0
PSCL5 TOTAL     ACCESS:    1465090  HIT:    1465090  MISS:          0  HIT %:        100  MISS %:          0   MPKI: 0
PSCL5 LOAD TRANSLATION ACCESS:     707810  HIT:     707810  MISS:          0  HIT %:        100  MISS %:          0   MPKI: 0
PSCL5 TRANSLATION FROM L1D PREFETCHER ACCESS:     757280  HIT:     757280  MISS:          0  HIT %:        100  MISS %:          0   MPKI: 0
PSCL5 PREFETCH  REQUESTED:          0  ISSUED:          0  USEFUL:          0  USELESS:          0
PSCL5 USEFUL LOAD PREFETCHES:          0 PREFETCH ISSUED TO LOWER LEVEL:          0  ACCURACY: -nan
PSCL5 TIMELY PREFETCHES:          0 LATE PREFETCHES: 0 DROPPED PREFETCHES: 0
PSCL5 PREFETCHES SAME FILL-ORIGIN LEVEL: 0 DIFFERENT FILL-ORIGIN LEVEL: 0

PSCL4 TOTAL     ACCESS:    1465090  HIT:    1465090  MISS:          0  HIT %:        100  MISS %:          0   MPKI: 0
PSCL4 LOAD TRANSLATION ACCESS:     707810  HIT:     707810  MISS:          0  HIT %:        100  MISS %:          0   MPKI: 0
PSCL4 TRANSLATION FROM L1D PREFETCHER ACCESS:     757280  HIT:     757280  MISS:          0  HIT %:        100  MISS %:          0   MPKI: 0
PSCL4 PREFETCH  REQUESTED:          0  ISSUED:          0  USEFUL:          0  USELESS:          0
PSCL4 USEFUL LOAD PREFETCHES:          0 PREFETCH ISSUED TO LOWER LEVEL:          0  ACCURACY: -nan
PSCL4 TIMELY PREFETCHES:          0 LATE PREFETCHES: 0 DROPPED PREFETCHES: 0
PSCL4 PREFETCHES SAME FILL-ORIGIN LEVEL: 0 DIFFERENT FILL-ORIGIN LEVEL: 0

PSCL3 TOTAL     ACCESS:    1465090  HIT:    1465089  MISS:          1  HIT %:    99.9999  MISS %: 6.82552e-05   MPKI: 5e-06
PSCL3 LOAD TRANSLATION ACCESS:     707810  HIT:     707809  MISS:          1  HIT %:    99.9999  MISS %: 0.000141281   MPKI: 5e-06
PSCL3 TRANSLATION FROM L1D PREFETCHER ACCESS:     757280  HIT:     757280  MISS:          0  HIT %:        100  MISS %:          0   MPKI: 0
PSCL3 PREFETCH  REQUESTED:          0  ISSUED:          0  USEFUL:          0  USELESS:          0
PSCL3 USEFUL LOAD PREFETCHES:          0 PREFETCH ISSUED TO LOWER LEVEL:          0  ACCURACY: -nan
PSCL3 TIMELY PREFETCHES:          0 LATE PREFETCHES: 0 DROPPED PREFETCHES: 0
PSCL3 PREFETCHES SAME FILL-ORIGIN LEVEL: 0 DIFFERENT FILL-ORIGIN LEVEL: 0

PSCL2 TOTAL     ACCESS:    1463384  HIT:    1463240  MISS:        144  HIT %:    99.9902  MISS %: 0.00984021   MPKI: 0.00072
PSCL2 LOAD TRANSLATION ACCESS:     707810  HIT:     707666  MISS:        144  HIT %:    99.9797  MISS %:  0.0203444   MPKI: 0.00072
PSCL2 TRANSLATION FROM L1D PREFETCHER ACCESS:     755574  HIT:     755574  MISS:          0  HIT %:        100  MISS %:          0   MPKI: 0
PSCL2 PREFETCH  REQUESTED:          0  ISSUED:          0  USEFUL:          0  USELESS:          0
PSCL2 USEFUL LOAD PREFETCHES:          0 PREFETCH ISSUED TO LOWER LEVEL:          0  ACCURACY: -nan
PSCL2 TIMELY PREFETCHES:          0 LATE PREFETCHES: 0 DROPPED PREFETCHES: 0
PSCL2 PREFETCHES SAME FILL-ORIGIN LEVEL: 0 DIFFERENT FILL-ORIGIN LEVEL: 0

LLC TOTAL     ACCESS:    5981837  HIT:    1247197  MISS:    4734640  HIT %:    20.8497  MISS %:    79.1503   MPKI: 23.6732
LLC LOAD      ACCESS:    2145203  HIT:     309785  MISS:    1835418  HIT %:    14.4408  MISS %:    85.5592   MPKI: 9.17709
LLC RFO       ACCESS:     312414  HIT:       9615  MISS:     302799  HIT %:    3.07765  MISS %:    96.9224   MPKI: 1.51399
LLC PREFETCH  ACCESS:    2579660  HIT:      22780  MISS:    2556880  HIT %:   0.883062  MISS %:    99.1169   MPKI: 12.7844
LLC WRITEBACK ACCESS:     790971  HIT:     760191  MISS:      30780  HIT %:    96.1086  MISS %:    3.89142   MPKI: 0.1539
LLC LOAD TRANSLATION ACCESS:     148342  HIT:     144476  MISS:       3866  HIT %:    97.3939  MISS %:    2.60614   MPKI: 0.01933
LLC TRANSLATION FROM L1D PREFETCHER ACCESS:       5247  HIT:        350  MISS:       4897  HIT %:    6.67048  MISS %:    93.3295   MPKI: 0.024485
LLC PREFETCH  REQUESTED:          0  ISSUED:          0  USEFUL:       6870  USELESS:   10184146
LLC USEFUL LOAD PREFETCHES:       6870 PREFETCH ISSUED TO LOWER LEVEL:   16047332  ACCURACY: 0.0428109
LLC TIMELY PREFETCHES:       6870 LATE PREFETCHES: 0 DROPPED PREFETCHES: 0
LLC PREFETCHES SAME FILL-ORIGIN LEVEL: 0 DIFFERENT FILL-ORIGIN LEVEL: 0
LLC AVERAGE MISS LATENCY: 1331.56 cycles
LLC RQ	ACCESS:   10452696	FORWARD:          0	MERGED:          0	TO_CACHE:   10452696
LLC WQ	ACCESS:    3164221	FORWARD:          0	MERGED:          0	TO_CACHE:    3164221
LLC PQ	ACCESS:   10320595	FORWARD:          0	MERGED:          0	TO_CACHE:   10320595

LLC Dense regions hint to LLC: 0

RAW hits: 86
Loads Generated: 56680200
Loads sent to L1D: 56680108
Stores Generated: 1807930
Stores sent to L1D: 1807930
Major fault: 0 Minor fault: 66733
Allocated PAGES: 266932

CPU 3 cumulative IPC: 0.303907 instructions: 200000001 cycles: 658096080
ITLB TOTAL     ACCESS:   34837503  HIT:   34837494  MISS:          9  HIT %:        100  MISS %: 2.58342e-05   MPKI: 4.5e-05
ITLB LOAD TRANSLATION ACCESS:   34837503  HIT:   34837494  MISS:          9  HIT %:        100  MISS %: 2.58342e-05   MPKI: 4.5e-05
ITLB PREFETCH  REQUESTED:          0  ISSUED:          0  USEFUL:          0  USELESS:          0
ITLB USEFUL LOAD PREFETCHES:          0 PREFETCH ISSUED TO LOWER LEVEL:          0  ACCURACY: -nan
ITLB TIMELY PREFETCHES:          0 LATE PREFETCHES: 0 DROPPED PREFETCHES: 0
ITLB PREFETCHES SAME FILL-ORIGIN LEVEL: 0 DIFFERENT FILL-ORIGIN LEVEL: 0
ITLB AVERAGE MISS LATENCY: 483.778 cycles
ITLB RQ	ACCESS:   35714605	FORWARD:          0	MERGED:     877100	TO_CACHE:   34837505

DTLB TOTAL     ACCESS:   39909901  HIT:   38007804  MISS:    1902097  HIT %:     95.234  MISS %:    4.76598   MPKI: 9.51048
DTLB LOAD TRANSLATION ACCESS:   39909901  HIT:   38007804  MISS:    1902097  HIT %:     95.234  MISS %:    4.76598   MPKI: 9.51048
DTLB PREFETCH  REQUESTED:          0  ISSUED:          0  USEFUL:          0  USELESS:          0
DTLB USEFUL LOAD PREFETCHES:          0 PREFETCH ISSUED TO LOWER LEVEL:          0  ACCURACY: -nan
DTLB TIMELY PREFETCHES:          0 LATE PREFETCHES: 0 DROPPED PREFETCHES: 0
DTLB PREFETCHES SAME FILL-ORIGIN LEVEL: 0 DIFFERENT FILL-ORIGIN LEVEL: 0
DTLB AVERAGE MISS LATENCY: 23.0312 cycles
DTLB RQ	ACCESS:   41490620	FORWARD:          0	MERGED:    1525540	TO_CACHE:   39965080

STLB TOTAL     ACCESS:   18844331  HIT:   18133786  MISS:     710545  HIT %:    96.2294  MISS %:     3.7706   MPKI: 3.55272
STLB LOAD TRANSLATION ACCESS:    1902106  HIT:    1194270  MISS:     707836  HIT %:    62.7867  MISS %:    37.2133   MPKI: 3.53918
STLB TRANSLATION FROM L1D PREFETCHER ACCESS:   16942225  HIT:   16939516  MISS:       2709  HIT %:     99.984  MISS %:  0.0159896   MPKI: 0.013545
STLB PREFETCH  REQUESTED:          0  ISSUED:          0  USEFUL:       2618  USELESS:         91
STLB USEFUL LOAD PREFETCHES:       2618 PREFETCH ISSUED TO LOWER LEVEL:          0  ACCURACY: inf
STLB TIMELY PREFETCHES:       2618 LATE PREFETCHES: 4299 DROPPED PREFETCHES: 743642
STLB PREFETCHES SAME FILL-ORIGIN LEVEL: 0 DIFFERENT FILL-ORIGIN LEVEL: 0
STLB AVERAGE MISS LATENCY: 37.0487 cycles
STLB RQ	ACCESS:   73065006	FORWARD:          0	MERGED:   53418458	TO_CACHE:   19646548

STLB Hit, L1D data hit: 0
STLB Hit, L2C data hit: 0
STLB Hit, LLC data hit: 0
STLB Hit, LLC data miss: 0
STLB STLB hints to L2: 0
L1D TOTAL     ACCESS:   89315045  HIT:   84323565  MISS:    4991480  HIT %:    94.4114  MISS %:    5.58862   MPKI: 24.9574
L1D LOAD      ACCESS:   38916594  HIT:   36188681  MISS:    2727913  HIT %:    92.9904  MISS %:    7.00964   MPKI: 13.6396
L1D RFO       ACCESS:    1394063  HIT:    1074222  MISS:     319841  HIT %:    77.0569  MISS %:    22.9431   MPKI: 1.5992
L1D PREFETCH  ACCESS:   49004388  HIT:   47060662  MISS:    1943726  HIT %:    96.0336  MISS %:    3.96643   MPKI: 9.71863
L1D PREFETCH  REQUESTED:  167930806  ISSUED:  167255438  USEFUL:    1681315  USELESS:     262417
L1D USEFUL LOAD PREFETCHES:    1681315 PREFETCH ISSUED TO LOWER LEVEL:   17377332  ACCURACY: 9.67533
L1D TIMELY PREFETCHES:    1681315 LATE PREFETCHES: 35120 DROPPED PREFETCHES: 2277407
L1D PREFETCHES SAME FILL-ORIGIN LEVEL: 1978846 DIFFERENT FILL-ORIGIN LEVEL: 15398486
L1D AVERAGE MISS LATENCY: 267.298 cycles
L1D RQ	ACCESS:   56680101	FORWARD:          0	MERGED:   16997401	TO_CACHE:   39682690
L1D WQ	ACCESS:    1807930	FORWARD:         66	MERGED:          0	TO_CACHE:    1807930
L1D PQ	ACCESS:   96092542	FORWARD:          0	MERGED:   24929590	TO_CACHE:   71162896

L1D UNIQUE REGIONS ACCESSED: 0
L1D REGIONS CONFLICTS: 0
L1D Cross Page Prefetch Requests: 7600262
L1D Same Page Prefetch Requests: 105292666
L1D ROI Sum of L1D PQ occupancy: 990339097
L1D PREFETCHES PUSHED FROM L2C: 0
L1I TOTAL     ACCESS:   35714595  HIT:   35714499  MISS:         96  HIT %:    99.9997  MISS %: 0.000268798   MPKI: 0.00048
L1I LOAD      ACCESS:   35714595  HIT:   35714499  MISS:         96  HIT %:    99.9997  MISS %: 0.000268798   MPKI: 0.00048
L1I PREFETCH  REQUESTED:          0  ISSUED:          0  USEFUL:          0  USELESS:          0
L1I USEFUL LOAD PREFETCHES:          0 PREFETCH ISSUED TO LOWER LEVEL:          0  ACCURACY: -nan
L1I TIMELY PREFETCHES:          0 LATE PREFETCHES: 0 DROPPED PREFETCHES: 0
L1I PREFETCHES SAME FILL-ORIGIN LEVEL: 0 DIFFERENT FILL-ORIGIN LEVEL: 0
L1I AVERAGE MISS LATENCY: 252.469 cycles
L1I RQ	ACCESS:   51333449	FORWARD:          0	MERGED:   15618844	TO_CACHE:   35714605

BTB TOTAL     ACCESS:   33115684  HIT:   33115558  MISS:        126  HIT %:    99.9996  MISS %: 0.000380484   MPKI: 0.00063
BTB BRANCH_DIRECT_JUMP	ACCESS:    1271126  HIT:    1271106  MISS:         20
BTB BRANCH_INDIRECT	ACCESS:          0  HIT:          0  MISS:          0
BTB BRANCH_CONDITIONAL	ACCESS:   31844521  HIT:   31844444  MISS:         77
BTB BRANCH_DIRECT_CALL	ACCESS:         19  HIT:          5  MISS:         14
BTB BRANCH_INDIRECT_CALL	ACCESS:          0  HIT:          0  MISS:          0
BTB BRANCH_RETURN	ACCESS:         18  HIT:          3  MISS:         15
BTB BRANCH_OTHER ACCESS:          0  HIT:          0  MISS:          0

L2C TOTAL     ACCESS:   19935398  HIT:   14677402  MISS:    5257996  HIT %:    73.6248  MISS %:    26.3752   MPKI: 26.29
L2C LOAD      ACCESS:    2692887  HIT:     500537  MISS:    2192350  HIT %:    18.5874  MISS %:    81.4126   MPKI: 10.9617
L2C DATA LOAD MPKI: 10.9613
L2C INSTRUCTION LOAD MPKI: 0.00048
L2C RFO       ACCESS:     319838  HIT:       7466  MISS:     312372  HIT %:    2.33431  MISS %:    97.6657   MPKI: 1.56186
L2C PREFETCH  ACCESS:   14655119  HIT:   12123401  MISS:    2531718  HIT %:    82.7247  MISS %:    17.2753   MPKI: 12.6586
L2C DATA PREFETCH MPKI: 12.6586
L2C INSTRUCTION PREFETCH MPKI: 0
L2C WRITEBACK ACCESS:     808523  HIT:     746390  MISS:      62133  HIT %:    92.3152  MISS %:    7.68475   MPKI: 0.310665
L2C LOAD TRANSLATION ACCESS:     707893  HIT:     553762  MISS:     154131  HIT %:    78.2268  MISS %:    21.7732   MPKI: 0.770655
L2C TRANSLATION FROM L1D PREFETCHER ACCESS:     751138  HIT:     745846  MISS:       5292  HIT %:    99.2955  MISS %:   0.704531   MPKI: 0.02646
L2C PREFETCH  REQUESTED:          0  ISSUED:          0  USEFUL:     355832  USELESS:    2176316
L2C USEFUL LOAD PREFETCHES:     355832 PREFETCH ISSUED TO LOWER LEVEL:    2578441  ACCURACY: 13.8003
L2C TIMELY PREFETCHES:     355832 LATE PREFETCHES: 46723 DROPPED PREFETCHES: 0
L2C PREFETCHES SAME FILL-ORIGIN LEVEL: 1523492 DIFFERENT FILL-ORIGIN LEVEL: 0
L2C AVERAGE MISS LATENCY: 328.934 cycles
L2C RQ	ACCESS:    4471762	FORWARD:          0	MERGED:          0	TO_CACHE:    4471757
L2C WQ	ACCESS:     808523	FORWARD:          5	MERGED:          0	TO_CACHE:     808523
L2C PQ	ACCESS:   17377332	FORWARD:          0	MERGED:      18688	TO_CACHE:   17358644

L2C Instructions Evicting Data 96
L2C Translations Evicting Data 152862
L2C Data Evicting Data 4884873
L2C Instructions Evicting Instructions 0
L2C Translations Evicting Instructions 0
L2C Data Evicting Instructions 94
L2C Instructions Evicting Translations 0
L2C Translations Evicting Translations 6561
L2C Data Evicting Translations 151377
L2C Dense regions hint from L2: 0
PSCL5 TOTAL     ACCESS:    1458484  HIT:    1458484  MISS:          0  HIT %:        100  MISS %:          0   MPKI: 0
PSCL5 LOAD TRANSLATION ACCESS:     707834  HIT:     707834  MISS:          0  HIT %:        100  MISS %:          0   MPKI: 0
PSCL5 TRANSLATION FROM L1D PREFETCHER ACCESS:     750650  HIT:     750650  MISS:          0  HIT %:        100  MISS %:          0   MPKI: 0
PSCL5 PREFETCH  REQUESTED:          0  ISSUED:          0  USEFUL:          0  USELESS:          0
PSCL5 USEFUL LOAD PREFETCHES:          0 PREFETCH ISSUED TO LOWER LEVEL:          0  ACCURACY: -nan
PSCL5 TIMELY PREFETCHES:          0 LATE PREFETCHES: 0 DROPPED PREFETCHES: 0
PSCL5 PREFETCHES SAME FILL-ORIGIN LEVEL: 0 DIFFERENT FILL-ORIGIN LEVEL: 0

PSCL4 TOTAL     ACCESS:    1458484  HIT:    1458484  MISS:          0  HIT %:        100  MISS %:          0   MPKI: 0
PSCL4 LOAD TRANSLATION ACCESS:     707834  HIT:     707834  MISS:          0  HIT %:        100  MISS %:          0   MPKI: 0
PSCL4 TRANSLATION FROM L1D PREFETCHER ACCESS:     750650  HIT:     750650  MISS:          0  HIT %:        100  MISS %:          0   MPKI: 0
PSCL4 PREFETCH  REQUESTED:          0  ISSUED:          0  USEFUL:          0  USELESS:          0
PSCL4 USEFUL LOAD PREFETCHES:          0 PREFETCH ISSUED TO LOWER LEVEL:          0  ACCURACY: -nan
PSCL4 TIMELY PREFETCHES:          0 LATE PREFETCHES: 0 DROPPED PREFETCHES: 0
PSCL4 PREFETCHES SAME FILL-ORIGIN LEVEL: 0 DIFFERENT FILL-ORIGIN LEVEL: 0

PSCL3 TOTAL     ACCESS:    1458484  HIT:    1458483  MISS:          1  HIT %:    99.9999  MISS %: 6.85643e-05   MPKI: 5e-06
PSCL3 LOAD TRANSLATION ACCESS:     707834  HIT:     707833  MISS:          1  HIT %:    99.9999  MISS %: 0.000141276   MPKI: 5e-06
PSCL3 TRANSLATION FROM L1D PREFETCHER ACCESS:     750650  HIT:     750650  MISS:          0  HIT %:        100  MISS %:          0   MPKI: 0
PSCL3 PREFETCH  REQUESTED:          0  ISSUED:          0  USEFUL:          0  USELESS:          0
PSCL3 USEFUL LOAD PREFETCHES:          0 PREFETCH ISSUED TO LOWER LEVEL:          0  ACCURACY: -nan
PSCL3 TIMELY PREFETCHES:          0 LATE PREFETCHES: 0 DROPPED PREFETCHES: 0
PSCL3 PREFETCHES SAME FILL-ORIGIN LEVEL: 0 DIFFERENT FILL-ORIGIN LEVEL: 0

PSCL2 TOTAL     ACCESS:    1456946  HIT:    1456802  MISS:        144  HIT %:    99.9901  MISS %: 0.00988369   MPKI: 0.00072
PSCL2 LOAD TRANSLATION ACCESS:     707835  HIT:     707691  MISS:        144  HIT %:    99.9797  MISS %:  0.0203437   MPKI: 0.00072
PSCL2 TRANSLATION FROM L1D PREFETCHER ACCESS:     749111  HIT:     749111  MISS:          0  HIT %:        100  MISS %:          0   MPKI: 0
PSCL2 PREFETCH  REQUESTED:          0  ISSUED:          0  USEFUL:          0  USELESS:          0
PSCL2 USEFUL LOAD PREFETCHES:          0 PREFETCH ISSUED TO LOWER LEVEL:          0  ACCURACY: -nan
PSCL2 TIMELY PREFETCHES:          0 LATE PREFETCHES: 0 DROPPED PREFETCHES: 0
PSCL2 PREFETCHES SAME FILL-ORIGIN LEVEL: 0 DIFFERENT FILL-ORIGIN LEVEL: 0

LLC TOTAL     ACCESS:    5986866  HIT:    1253701  MISS:    4733165  HIT %:    20.9409  MISS %:    79.0591   MPKI: 23.6658
LLC LOAD      ACCESS:    2145627  HIT:     310048  MISS:    1835579  HIT %:    14.4502  MISS %:    85.5498   MPKI: 9.17789
LLC RFO       ACCESS:     312372  HIT:       9636  MISS:     302736  HIT %:    3.08478  MISS %:    96.9152   MPKI: 1.51368
LLC PREFETCH  ACCESS:    2578441  HIT:      22942  MISS:    2555499  HIT %:   0.889762  MISS %:    99.1102   MPKI: 12.7775
LLC WRITEBACK ACCESS:     791003  HIT:     760159  MISS:      30844  HIT %:    96.1006  MISS %:    3.89935   MPKI: 0.15422
LLC LOAD TRANSLATION ACCESS:     154131  HIT:     150515  MISS:       3616  HIT %:    97.6539  MISS %:    2.34606   MPKI: 0.01808
LLC TRANSLATION FROM L1D PREFETCHER ACCESS:       5292  HIT:        401  MISS:       4891  HIT %:    7.57748  MISS %:    92.4225   MPKI: 0.024455
LLC PREFETCH  REQUESTED:          0  ISSUED:          0  USEFUL:       6870  USELESS:   10184146
LLC USEFUL LOAD PREFETCHES:       6870 PREFETCH ISSUED TO LOWER LEVEL:   16047332  ACCURACY: 0.0428109
LLC TIMELY PREFETCHES:       6870 LATE PREFETCHES: 0 DROPPED PREFETCHES: 0
LLC PREFETCHES SAME FILL-ORIGIN LEVEL: 0 DIFFERENT FILL-ORIGIN LEVEL: 0
LLC AVERAGE MISS LATENCY: 1331.97 cycles
LLC RQ	ACCESS:   10452696	FORWARD:          0	MERGED:          0	TO_CACHE:   10452696
LLC WQ	ACCESS:    3164221	FORWARD:          0	MERGED:          0	TO_CACHE:    3164221
LLC PQ	ACCESS:   10320595	FORWARD:          0	MERGED:          0	TO_CACHE:   10320595

LLC Dense regions hint to LLC: 0

RAW hits: 87
Loads Generated: 56680188
Loads sent to L1D: 56680101
Stores Generated: 1807930
Stores sent to L1D: 1807930
Major fault: 0 Minor fault: 66733
Allocated PAGES: 266932

DRAM Statistics
 CHANNEL 0
 RQ ROW_BUFFER_HIT:    3825413  ROW_BUFFER_MISS:   14995809
 DBUS_CONGESTED:        280
 WQ ROW_BUFFER_HIT:     115735  ROW_BUFFER_MISS:    2953601  FULL:          0

 AVG_CONGESTED_CYCLE: 5
 All warmup complete: 5
Channel 0 Bank busy for read cycles: 0
Channel 0 Bank busy for write cycles: 0
Channel 0
Rank 0
0banks busy for read cycles: 194440
0banks busy for write cycles: 85
1banks busy for read cycles: 21131990
1banks busy for write cycles: 403257
2banks busy for read cycles: 66740600
2banks busy for write cycles: 392116
3banks busy for read cycles: 99883408
3banks busy for write cycles: 390689
4banks busy for read cycles: 111226590
4banks busy for write cycles: 390846
5banks busy for read cycles: 98203152
5banks busy for write cycles: 428527
6banks busy for read cycles: 74765448
6banks busy for write cycles: 1503749
7banks busy for read cycles: 50760562
7banks busy for write cycles: 15122281
8banks busy for read cycles: 41477267
8banks busy for write cycles: 75081073

CPU 0 Branch Prediction Accuracy: 91.6823% MPKI: 16.0309 Average ROB Occupancy at Mispredict: 20.1669
Branch types
NOT_BRANCH: 161459252 80.7267%
BRANCH_DIRECT_JUMP: 1271180 0.635567%
BRANCH_INDIRECT: 0 0%
BRANCH_CONDITIONAL: 37276875 18.6378%
BRANCH_DIRECT_CALL: 19 9.49965e-06%
BRANCH_INDIRECT_CALL: 0 0%
BRANCH_RETURN: 18 8.99967e-06%
BRANCH_OTHER: 0 0%


CPU 1 Branch Prediction Accuracy: 91.6848% MPKI: 16.0221 Average ROB Occupancy at Mispredict: 20.1741
Branch types
NOT_BRANCH: 161600633 80.7315%
BRANCH_DIRECT_JUMP: 1271388 0.635153%
BRANCH_INDIRECT: 0 0%
BRANCH_CONDITIONAL: 37298498 18.6334%
BRANCH_DIRECT_CALL: 19 9.49191e-06%
BRANCH_INDIRECT_CALL: 0 0%
BRANCH_RETURN: 18 8.99233e-06%
BRANCH_OTHER: 0 0%


CPU 2 Branch Prediction Accuracy: 91.6823% MPKI: 16.0309 Average ROB Occupancy at Mispredict: 20.1609
Branch types
NOT_BRANCH: 161459892 80.7267%
BRANCH_DIRECT_JUMP: 1271185 0.635567%
BRANCH_INDIRECT: 0 0%
BRANCH_CONDITIONAL: 37276985 18.6377%
BRANCH_DIRECT_CALL: 19 9.49961e-06%
BRANCH_INDIRECT_CALL: 0 0%
BRANCH_RETURN: 18 8.99963e-06%
BRANCH_OTHER: 0 0%


CPU 3 Branch Prediction Accuracy: 91.6825% MPKI: 16.0307 Average ROB Occupancy at Mispredict: 20.1653
Branch types
NOT_BRANCH: 161453116 80.7266%
BRANCH_DIRECT_JUMP: 1271126 0.635563%
BRANCH_INDIRECT: 0 0%
BRANCH_CONDITIONAL: 37275753 18.6379%
BRANCH_DIRECT_CALL: 19 9.5e-06%
BRANCH_INDIRECT_CALL: 0 0%
BRANCH_RETURN: 18 9e-06%
BRANCH_OTHER: 0 0%

DRAM PAGES: 1048576
Allocated PAGES: 266932
