
*** ChampSim Multicore Out-of-Order Simulator ***

Warmup Instructions: 50000000
Simulation Instructions: 200000000
Number of CPUs: 4
LLC sets: 8192
LLC ways: 16
Off-chip DRAM Size: 4096 MB Channels: 1 Width: 64-bit Data Rate: 6400 MT/s
CPU 0 runs ./traces/ligra/ligra_BFSCC.com-lj.ungraph.gcc_6.3.0_O3.drop_3500M.length_250M.champsimtrace.xz
.xz
CPU 1 runs ./traces/ligra/ligra_BFSCC.com-lj.ungraph.gcc_6.3.0_O3.drop_3500M.length_250M.champsimtrace.xz
.xz
CPU 2 runs ./traces/ligra/ligra_BFSCC.com-lj.ungraph.gcc_6.3.0_O3.drop_3500M.length_250M.champsimtrace.xz
.xz
CPU 3 runs ./traces/ligra/ligra_BFSCC.com-lj.ungraph.gcc_6.3.0_O3.drop_3500M.length_250M.champsimtrace.xz
.xz
BTB has LRU replacement policy
ITLB has LRU replacement policy
DTLB has LRU replacement policy
STLB has LRU replacement policy
L1I has LRU replacement policy
History Sets: 8
History Ways: 16
BERTI Size: 16
BERTI Stride Size: 8
L1D has LRU replacement policy
Initialize SRRIP state for L2C
Initialize DRRIP state for LLC
BTB has LRU replacement policy
ITLB has LRU replacement policy
DTLB has LRU replacement policy
STLB has LRU replacement policy
L1I has LRU replacement policy
History Sets: 8
History Ways: 16
BERTI Size: 16
BERTI Stride Size: 8
L1D has LRU replacement policy
Initialize SRRIP state for L2C
Initialize DRRIP state for LLC
BTB has LRU replacement policy
ITLB has LRU replacement policy
DTLB has LRU replacement policy
STLB has LRU replacement policy
L1I has LRU replacement policy
History Sets: 8
History Ways: 16
BERTI Size: 16
BERTI Stride Size: 8
L1D has LRU replacement policy
Initialize SRRIP state for L2C
Initialize DRRIP state for LLC
BTB has LRU replacement policy
ITLB has LRU replacement policy
DTLB has LRU replacement policy
STLB has LRU replacement policy
L1I has LRU replacement policy
History Sets: 8
History Ways: 16
BERTI Size: 16
BERTI Stride Size: 8
L1D has LRU replacement policy
Initialize SRRIP state for L2C
Initialize DRRIP state for LLC
Heartbeat CPU 0 instructions: 10000002 cycles: 3333345 heartbeat IPC: 2.99999 cumulative IPC: 2.99999 (Simulation time: 0 hr 1 min 46 sec) 
Heartbeat CPU 1 instructions: 10000002 cycles: 3333346 heartbeat IPC: 2.99999 cumulative IPC: 2.99999 (Simulation time: 0 hr 1 min 46 sec) 
Heartbeat CPU 2 instructions: 10000002 cycles: 3333347 heartbeat IPC: 2.99999 cumulative IPC: 2.99999 (Simulation time: 0 hr 1 min 46 sec) 
Heartbeat CPU 3 instructions: 10000002 cycles: 3333348 heartbeat IPC: 2.99999 cumulative IPC: 2.99999 (Simulation time: 0 hr 1 min 46 sec) 
Heartbeat CPU 0 instructions: 20000000 cycles: 6666677 heartbeat IPC: 3 cumulative IPC: 3 (Simulation time: 0 hr 3 min 49 sec) 
Heartbeat CPU 1 instructions: 20000000 cycles: 6666678 heartbeat IPC: 3 cumulative IPC: 2.99999 (Simulation time: 0 hr 3 min 49 sec) 
Heartbeat CPU 2 instructions: 20000000 cycles: 6666679 heartbeat IPC: 3 cumulative IPC: 2.99999 (Simulation time: 0 hr 3 min 49 sec) 
Heartbeat CPU 3 instructions: 20000000 cycles: 6666680 heartbeat IPC: 3 cumulative IPC: 2.99999 (Simulation time: 0 hr 3 min 49 sec) 
Heartbeat CPU 0 instructions: 30000001 cycles: 10000011 heartbeat IPC: 3 cumulative IPC: 3 (Simulation time: 0 hr 5 min 49 sec) 
Heartbeat CPU 1 instructions: 30000001 cycles: 10000012 heartbeat IPC: 3 cumulative IPC: 3 (Simulation time: 0 hr 5 min 49 sec) 
Heartbeat CPU 2 instructions: 30000001 cycles: 10000013 heartbeat IPC: 3 cumulative IPC: 3 (Simulation time: 0 hr 5 min 49 sec) 
Heartbeat CPU 3 instructions: 30000001 cycles: 10000014 heartbeat IPC: 3 cumulative IPC: 3 (Simulation time: 0 hr 5 min 49 sec) 
Heartbeat CPU 0 instructions: 40000001 cycles: 13333345 heartbeat IPC: 3 cumulative IPC: 3 (Simulation time: 0 hr 7 min 37 sec) 
Heartbeat CPU 1 instructions: 40000001 cycles: 13333346 heartbeat IPC: 3 cumulative IPC: 3 (Simulation time: 0 hr 7 min 37 sec) 
Heartbeat CPU 2 instructions: 40000001 cycles: 13333347 heartbeat IPC: 3 cumulative IPC: 3 (Simulation time: 0 hr 7 min 37 sec) 
Heartbeat CPU 3 instructions: 40000001 cycles: 13333348 heartbeat IPC: 3 cumulative IPC: 3 (Simulation time: 0 hr 7 min 37 sec) 
Heartbeat CPU 0 instructions: 50000001 cycles: 16666678 heartbeat IPC: 3 cumulative IPC: 3 (Simulation time: 0 hr 9 min 26 sec) 
Heartbeat CPU 1 instructions: 50000001 cycles: 16666679 heartbeat IPC: 3 cumulative IPC: 3 (Simulation time: 0 hr 9 min 26 sec) 
Heartbeat CPU 2 instructions: 50000001 cycles: 16666680 heartbeat IPC: 3 cumulative IPC: 3 (Simulation time: 0 hr 9 min 26 sec) 
Heartbeat CPU 3 instructions: 50000001 cycles: 16666681 heartbeat IPC: 3 cumulative IPC: 3 (Simulation time: 0 hr 9 min 26 sec) 

Warmup complete CPU 0 instructions: 50000010 cycles: 16666681 (Simulation time: 0 hr 9 min 26 sec) 
Warmup complete CPU 1 instructions: 50000006 cycles: 16666681 (Simulation time: 0 hr 9 min 26 sec) 
Warmup complete CPU 2 instructions: 50000005 cycles: 16666681 (Simulation time: 0 hr 9 min 26 sec) 
Warmup complete CPU 3 instructions: 50000001 cycles: 16666681 (Simulation time: 0 hr 9 min 26 sec) 

Heartbeat CPU 0 instructions: 60000000 cycles: 25378822 heartbeat IPC: 1.14782 cumulative IPC: 1.14782 (Simulation time: 0 hr 12 min 29 sec) 
Heartbeat CPU 2 instructions: 60000000 cycles: 25379856 heartbeat IPC: 1.14769 cumulative IPC: 1.14769 (Simulation time: 0 hr 12 min 29 sec) 
Heartbeat CPU 1 instructions: 60000000 cycles: 25383935 heartbeat IPC: 1.14715 cumulative IPC: 1.14715 (Simulation time: 0 hr 12 min 30 sec) 
Heartbeat CPU 3 instructions: 60000000 cycles: 25386411 heartbeat IPC: 1.14682 cumulative IPC: 1.14682 (Simulation time: 0 hr 12 min 30 sec) 
Heartbeat CPU 0 instructions: 70000003 cycles: 34124913 heartbeat IPC: 1.14337 cumulative IPC: 1.14559 (Simulation time: 0 hr 15 min 28 sec) 
Heartbeat CPU 2 instructions: 70000003 cycles: 34127341 heartbeat IPC: 1.14319 cumulative IPC: 1.14543 (Simulation time: 0 hr 15 min 28 sec) 
Heartbeat CPU 1 instructions: 70000003 cycles: 34130907 heartbeat IPC: 1.14325 cumulative IPC: 1.1452 (Simulation time: 0 hr 15 min 28 sec) 
Heartbeat CPU 3 instructions: 70000003 cycles: 34133836 heartbeat IPC: 1.14319 cumulative IPC: 1.14501 (Simulation time: 0 hr 15 min 28 sec) 
Heartbeat CPU 0 instructions: 80000000 cycles: 42830158 heartbeat IPC: 1.14873 cumulative IPC: 1.14664 (Simulation time: 0 hr 18 min 30 sec) 
Heartbeat CPU 2 instructions: 80000000 cycles: 42834072 heartbeat IPC: 1.14854 cumulative IPC: 1.14646 (Simulation time: 0 hr 18 min 30 sec) 
Heartbeat CPU 1 instructions: 80000000 cycles: 42837134 heartbeat IPC: 1.1486 cumulative IPC: 1.14633 (Simulation time: 0 hr 18 min 30 sec) 
Heartbeat CPU 3 instructions: 80000000 cycles: 42843435 heartbeat IPC: 1.14816 cumulative IPC: 1.14605 (Simulation time: 0 hr 18 min 30 sec) 
Heartbeat CPU 0 instructions: 90000002 cycles: 51574360 heartbeat IPC: 1.14362 cumulative IPC: 1.14588 (Simulation time: 0 hr 21 min 43 sec) 
Heartbeat CPU 2 instructions: 90000002 cycles: 51579565 heartbeat IPC: 1.14345 cumulative IPC: 1.14571 (Simulation time: 0 hr 21 min 43 sec) 
Heartbeat CPU 1 instructions: 90000002 cycles: 51583030 heartbeat IPC: 1.14339 cumulative IPC: 1.1456 (Simulation time: 0 hr 21 min 43 sec) 
Heartbeat CPU 3 instructions: 90000002 cycles: 51590662 heartbeat IPC: 1.14322 cumulative IPC: 1.14534 (Simulation time: 0 hr 21 min 43 sec) 
Heartbeat CPU 0 instructions: 100000000 cycles: 60301251 heartbeat IPC: 1.14588 cumulative IPC: 1.14588 (Simulation time: 0 hr 24 min 38 sec) 
Heartbeat CPU 2 instructions: 100000000 cycles: 60308009 heartbeat IPC: 1.14568 cumulative IPC: 1.1457 (Simulation time: 0 hr 24 min 38 sec) 
Heartbeat CPU 1 instructions: 100000000 cycles: 60312002 heartbeat IPC: 1.14561 cumulative IPC: 1.1456 (Simulation time: 0 hr 24 min 38 sec) 
Heartbeat CPU 3 instructions: 100000000 cycles: 60321280 heartbeat IPC: 1.14539 cumulative IPC: 1.14535 (Simulation time: 0 hr 24 min 39 sec) 
Heartbeat CPU 0 instructions: 110000000 cycles: 69044971 heartbeat IPC: 1.14368 cumulative IPC: 1.14551 (Simulation time: 0 hr 27 min 48 sec) 
Heartbeat CPU 2 instructions: 110000000 cycles: 69052090 heartbeat IPC: 1.14363 cumulative IPC: 1.14536 (Simulation time: 0 hr 27 min 49 sec) 
Heartbeat CPU 1 instructions: 110000000 cycles: 69059091 heartbeat IPC: 1.14324 cumulative IPC: 1.1452 (Simulation time: 0 hr 27 min 49 sec) 
Heartbeat CPU 3 instructions: 110000000 cycles: 69068586 heartbeat IPC: 1.14321 cumulative IPC: 1.145 (Simulation time: 0 hr 27 min 49 sec) 
Heartbeat CPU 0 instructions: 120000000 cycles: 77811402 heartbeat IPC: 1.14072 cumulative IPC: 1.14482 (Simulation time: 0 hr 30 min 57 sec) 
Heartbeat CPU 2 instructions: 120000000 cycles: 77819427 heartbeat IPC: 1.1406 cumulative IPC: 1.14467 (Simulation time: 0 hr 30 min 57 sec) 
Heartbeat CPU 1 instructions: 120000000 cycles: 77826413 heartbeat IPC: 1.1406 cumulative IPC: 1.14454 (Simulation time: 0 hr 30 min 57 sec) 
Heartbeat CPU 3 instructions: 120000000 cycles: 77835278 heartbeat IPC: 1.14068 cumulative IPC: 1.14438 (Simulation time: 0 hr 30 min 57 sec) 
Heartbeat CPU 0 instructions: 130000003 cycles: 86593542 heartbeat IPC: 1.13867 cumulative IPC: 1.14405 (Simulation time: 0 hr 34 min 11 sec) 
Heartbeat CPU 2 instructions: 130000003 cycles: 86601358 heartbeat IPC: 1.1387 cumulative IPC: 1.14392 (Simulation time: 0 hr 34 min 11 sec) 
Heartbeat CPU 1 instructions: 130000003 cycles: 86609994 heartbeat IPC: 1.13849 cumulative IPC: 1.14378 (Simulation time: 0 hr 34 min 11 sec) 
Heartbeat CPU 3 instructions: 130000003 cycles: 86618059 heartbeat IPC: 1.13859 cumulative IPC: 1.14365 (Simulation time: 0 hr 34 min 11 sec) 
Heartbeat CPU 0 instructions: 140000000 cycles: 95369311 heartbeat IPC: 1.1395 cumulative IPC: 1.14354 (Simulation time: 0 hr 37 min 13 sec) 
Heartbeat CPU 2 instructions: 140000000 cycles: 95378825 heartbeat IPC: 1.13928 cumulative IPC: 1.14341 (Simulation time: 0 hr 37 min 13 sec) 
Heartbeat CPU 1 instructions: 140000000 cycles: 95386153 heartbeat IPC: 1.13945 cumulative IPC: 1.1433 (Simulation time: 0 hr 37 min 13 sec) 
Heartbeat CPU 3 instructions: 140000000 cycles: 95395563 heartbeat IPC: 1.13928 cumulative IPC: 1.14316 (Simulation time: 0 hr 37 min 13 sec) 
Heartbeat CPU 0 instructions: 150000000 cycles: 104135818 heartbeat IPC: 1.14071 cumulative IPC: 1.14326 (Simulation time: 0 hr 40 min 23 sec) 
Heartbeat CPU 2 instructions: 150000000 cycles: 104143690 heartbeat IPC: 1.14092 cumulative IPC: 1.14316 (Simulation time: 0 hr 40 min 23 sec) 
Heartbeat CPU 1 instructions: 150000000 cycles: 104152979 heartbeat IPC: 1.14066 cumulative IPC: 1.14304 (Simulation time: 0 hr 40 min 23 sec) 
Heartbeat CPU 3 instructions: 150000000 cycles: 104159557 heartbeat IPC: 1.14103 cumulative IPC: 1.14295 (Simulation time: 0 hr 40 min 24 sec) 
Heartbeat CPU 0 instructions: 160000001 cycles: 112905219 heartbeat IPC: 1.14033 cumulative IPC: 1.14299 (Simulation time: 0 hr 43 min 32 sec) 
Heartbeat CPU 2 instructions: 160000001 cycles: 112915262 heartbeat IPC: 1.14005 cumulative IPC: 1.14287 (Simulation time: 0 hr 43 min 32 sec) 
Heartbeat CPU 1 instructions: 160000001 cycles: 112922033 heartbeat IPC: 1.14037 cumulative IPC: 1.14279 (Simulation time: 0 hr 43 min 32 sec) 
Heartbeat CPU 3 instructions: 160000001 cycles: 112928831 heartbeat IPC: 1.14035 cumulative IPC: 1.14271 (Simulation time: 0 hr 43 min 33 sec) 
Heartbeat CPU 0 instructions: 170000001 cycles: 121584200 heartbeat IPC: 1.15221 cumulative IPC: 1.14376 (Simulation time: 0 hr 46 min 32 sec) 
Heartbeat CPU 2 instructions: 170000001 cycles: 121591952 heartbeat IPC: 1.15251 cumulative IPC: 1.14367 (Simulation time: 0 hr 46 min 32 sec) 
Heartbeat CPU 1 instructions: 170000001 cycles: 121599593 heartbeat IPC: 1.1524 cumulative IPC: 1.14359 (Simulation time: 0 hr 46 min 33 sec) 
Heartbeat CPU 3 instructions: 170000001 cycles: 121606772 heartbeat IPC: 1.15235 cumulative IPC: 1.14351 (Simulation time: 0 hr 46 min 33 sec) 
Heartbeat CPU 0 instructions: 180000001 cycles: 130346918 heartbeat IPC: 1.1412 cumulative IPC: 1.14356 (Simulation time: 0 hr 49 min 33 sec) 
Heartbeat CPU 2 instructions: 180000001 cycles: 130354903 heartbeat IPC: 1.14117 cumulative IPC: 1.14348 (Simulation time: 0 hr 49 min 33 sec) 
Heartbeat CPU 1 instructions: 180000001 cycles: 130362627 heartbeat IPC: 1.14116 cumulative IPC: 1.1434 (Simulation time: 0 hr 49 min 33 sec) 
Heartbeat CPU 3 instructions: 180000001 cycles: 130371757 heartbeat IPC: 1.1409 cumulative IPC: 1.14331 (Simulation time: 0 hr 49 min 33 sec) 
Heartbeat CPU 0 instructions: 190000000 cycles: 139165757 heartbeat IPC: 1.13394 cumulative IPC: 1.14287 (Simulation time: 0 hr 52 min 29 sec) 
Heartbeat CPU 2 instructions: 190000000 cycles: 139175180 heartbeat IPC: 1.13375 cumulative IPC: 1.14278 (Simulation time: 0 hr 52 min 29 sec) 
Heartbeat CPU 1 instructions: 190000000 cycles: 139182036 heartbeat IPC: 1.13386 cumulative IPC: 1.14271 (Simulation time: 0 hr 52 min 29 sec) 
Heartbeat CPU 3 instructions: 190000000 cycles: 139190386 heartbeat IPC: 1.13396 cumulative IPC: 1.14264 (Simulation time: 0 hr 52 min 29 sec) 
Heartbeat CPU 0 instructions: 200000001 cycles: 148006096 heartbeat IPC: 1.13118 cumulative IPC: 1.14208 (Simulation time: 0 hr 55 min 32 sec) 
Heartbeat CPU 2 instructions: 200000001 cycles: 148014441 heartbeat IPC: 1.13132 cumulative IPC: 1.14201 (Simulation time: 0 hr 55 min 32 sec) 
Heartbeat CPU 1 instructions: 200000001 cycles: 148021366 heartbeat IPC: 1.13131 cumulative IPC: 1.14195 (Simulation time: 0 hr 55 min 32 sec) 
Heartbeat CPU 3 instructions: 200000001 cycles: 148030377 heartbeat IPC: 1.13122 cumulative IPC: 1.14187 (Simulation time: 0 hr 55 min 32 sec) 
Heartbeat CPU 0 instructions: 210000000 cycles: 156825439 heartbeat IPC: 1.13387 cumulative IPC: 1.14156 (Simulation time: 0 hr 58 min 26 sec) 
Heartbeat CPU 2 instructions: 210000000 cycles: 156834805 heartbeat IPC: 1.13374 cumulative IPC: 1.14149 (Simulation time: 0 hr 58 min 26 sec) 
Heartbeat CPU 1 instructions: 210000000 cycles: 156840491 heartbeat IPC: 1.1339 cumulative IPC: 1.14144 (Simulation time: 0 hr 58 min 26 sec) 
Heartbeat CPU 3 instructions: 210000000 cycles: 156847519 heartbeat IPC: 1.13415 cumulative IPC: 1.14138 (Simulation time: 0 hr 58 min 26 sec) 
Heartbeat CPU 0 instructions: 220000000 cycles: 165726366 heartbeat IPC: 1.12348 cumulative IPC: 1.14048 (Simulation time: 1 hr 1 min 17 sec) 
Heartbeat CPU 2 instructions: 220000000 cycles: 165731915 heartbeat IPC: 1.12396 cumulative IPC: 1.14044 (Simulation time: 1 hr 1 min 17 sec) 
Heartbeat CPU 1 instructions: 220000000 cycles: 165736267 heartbeat IPC: 1.12413 cumulative IPC: 1.14041 (Simulation time: 1 hr 1 min 17 sec) 
Heartbeat CPU 3 instructions: 220000000 cycles: 165747200 heartbeat IPC: 1.12364 cumulative IPC: 1.14032 (Simulation time: 1 hr 1 min 17 sec) 
Heartbeat CPU 0 instructions: 230000002 cycles: 174522914 heartbeat IPC: 1.13681 cumulative IPC: 1.14028 (Simulation time: 1 hr 4 min 29 sec) 
Heartbeat CPU 2 instructions: 230000002 cycles: 174526936 heartbeat IPC: 1.13701 cumulative IPC: 1.14025 (Simulation time: 1 hr 4 min 29 sec) 
Heartbeat CPU 1 instructions: 230000002 cycles: 174533872 heartbeat IPC: 1.13667 cumulative IPC: 1.1402 (Simulation time: 1 hr 4 min 29 sec) 
Heartbeat CPU 3 instructions: 230000002 cycles: 174546372 heartbeat IPC: 1.13647 cumulative IPC: 1.14011 (Simulation time: 1 hr 4 min 29 sec) 
Heartbeat CPU 0 instructions: 240000002 cycles: 183299490 heartbeat IPC: 1.1394 cumulative IPC: 1.14023 (Simulation time: 1 hr 7 min 39 sec) 
Heartbeat CPU 2 instructions: 240000002 cycles: 183306932 heartbeat IPC: 1.13895 cumulative IPC: 1.14018 (Simulation time: 1 hr 7 min 39 sec) 
Heartbeat CPU 1 instructions: 240000002 cycles: 183313290 heartbeat IPC: 1.13903 cumulative IPC: 1.14014 (Simulation time: 1 hr 7 min 39 sec) 
Heartbeat CPU 3 instructions: 240000002 cycles: 183323798 heartbeat IPC: 1.13929 cumulative IPC: 1.14007 (Simulation time: 1 hr 7 min 39 sec) 
*** Reached end of trace for Core: 0 Repeating trace: ./traces/ligra/ligra_BFSCC.com-lj.ungraph.gcc_6.3.0_O3.drop_3500M.length_250M.champsimtrace.xz
Heartbeat CPU 0 instructions: 250000002 cycles: 192037819 heartbeat IPC: 1.14438 cumulative IPC: 1.14044 (Simulation time: 1 hr 10 min 53 sec) 
Finished CPU 0 instructions: 200000001 cycles: 175371761 cumulative IPC: 1.14043 (Simulation time: 1 hr 10 min 53 sec) 
*** Reached end of trace for Core: 2 Repeating trace: ./traces/ligra/ligra_BFSCC.com-lj.ungraph.gcc_6.3.0_O3.drop_3500M.length_250M.champsimtrace.xz
Heartbeat CPU 2 instructions: 250000002 cycles: 192047504 heartbeat IPC: 1.14409 cumulative IPC: 1.14038 (Simulation time: 1 hr 10 min 53 sec) 
Finished CPU 2 instructions: 200000001 cycles: 175380824 cumulative IPC: 1.14038 (Simulation time: 1 hr 10 min 53 sec) 
*** Reached end of trace for Core: 1 Repeating trace: ./traces/ligra/ligra_BFSCC.com-lj.ungraph.gcc_6.3.0_O3.drop_3500M.length_250M.champsimtrace.xz
Heartbeat CPU 1 instructions: 250000002 cycles: 192051385 heartbeat IPC: 1.14441 cumulative IPC: 1.14035 (Simulation time: 1 hr 10 min 53 sec) 
Finished CPU 1 instructions: 200000000 cycles: 175384705 cumulative IPC: 1.14035 (Simulation time: 1 hr 10 min 53 sec) 
*** Reached end of trace for Core: 3 Repeating trace: ./traces/ligra/ligra_BFSCC.com-lj.ungraph.gcc_6.3.0_O3.drop_3500M.length_250M.champsimtrace.xz
Heartbeat CPU 3 instructions: 250000002 cycles: 192061656 heartbeat IPC: 1.14445 cumulative IPC: 1.14028 (Simulation time: 1 hr 10 min 54 sec) 
Finished CPU 3 instructions: 200000001 cycles: 175394975 cumulative IPC: 1.14028 (Simulation time: 1 hr 10 min 54 sec) 

ChampSim completed all CPUs

Total Simulation Statistics (not including warmup)

CPU 0 cumulative IPC: 1.14044 instructions: 200026628 cycles: 175394975
ITLB TOTAL     ACCESS:   33184359  HIT:   33184359  MISS:          0  HIT %:        100  MISS %:          0   MPKI: 0
ITLB LOAD      ACCESS:          0  HIT:          0  MISS:          0  HIT %:       -nan  MISS %:       -nan   MPKI: 0
ITLB RFO       ACCESS:          0  HIT:          0  MISS:          0  HIT %:       -nan  MISS %:       -nan   MPKI: 0
ITLB PREFETCH  ACCESS:          0  HIT:          0  MISS:          0  HIT %:       -nan  MISS %:       -nan   MPKI: 0
ITLB WRITEBACK ACCESS:          0  HIT:          0  MISS:          0  HIT %:       -nan  MISS %:       -nan   MPKI: 0
DTLB TOTAL     ACCESS:   33849998  HIT:   33838817  MISS:      11181  HIT %:     99.967  MISS %:   0.033031   MPKI: 0.0558976
DTLB LOAD      ACCESS:          0  HIT:          0  MISS:          0  HIT %:       -nan  MISS %:       -nan   MPKI: 0
DTLB RFO       ACCESS:          0  HIT:          0  MISS:          0  HIT %:       -nan  MISS %:       -nan   MPKI: 0
DTLB PREFETCH  ACCESS:          0  HIT:          0  MISS:          0  HIT %:       -nan  MISS %:       -nan   MPKI: 0
DTLB WRITEBACK ACCESS:          0  HIT:          0  MISS:          0  HIT %:       -nan  MISS %:       -nan   MPKI: 0
STLB TOTAL     ACCESS:   10784330  HIT:   10773149  MISS:      11181  HIT %:    99.8963  MISS %:   0.103678   MPKI: 0.0558976
STLB LOAD      ACCESS:          0  HIT:          0  MISS:          0  HIT %:       -nan  MISS %:       -nan   MPKI: 0
STLB RFO       ACCESS:          0  HIT:          0  MISS:          0  HIT %:       -nan  MISS %:       -nan   MPKI: 0
STLB PREFETCH  ACCESS:          0  HIT:          0  MISS:          0  HIT %:       -nan  MISS %:       -nan   MPKI: 0
STLB WRITEBACK ACCESS:          0  HIT:          0  MISS:          0  HIT %:       -nan  MISS %:       -nan   MPKI: 0
L1D TOTAL     ACCESS:   77789812  HIT:   77074393  MISS:     715419  HIT %:    99.0803  MISS %:   0.919682   MPKI: 3.57662
L1D LOAD      ACCESS:   12470768  HIT:   12465097  MISS:       5671  HIT %:    99.9545  MISS %:  0.0454743   MPKI: 0.0283512
L1D RFO       ACCESS:   12380748  HIT:   12023042  MISS:     357706  HIT %:    97.1108  MISS %:    2.88921   MPKI: 1.78829
L1D PREFETCH  ACCESS:   52938296  HIT:   52586254  MISS:     352042  HIT %:     99.335  MISS %:   0.665004   MPKI: 1.75998
L1D WRITEBACK ACCESS:          0  HIT:          0  MISS:          0  HIT %:       -nan  MISS %:       -nan   MPKI: 0
L1I TOTAL     ACCESS:   33184359  HIT:   33184359  MISS:          0  HIT %:        100  MISS %:          0   MPKI: 0
L1I LOAD      ACCESS:   33184359  HIT:   33184359  MISS:          0  HIT %:        100  MISS %:          0   MPKI: 0
L1I RFO       ACCESS:          0  HIT:          0  MISS:          0  HIT %:       -nan  MISS %:       -nan   MPKI: 0
L1I PREFETCH  ACCESS:          0  HIT:          0  MISS:          0  HIT %:       -nan  MISS %:       -nan   MPKI: 0
L1I WRITEBACK ACCESS:          0  HIT:          0  MISS:          0  HIT %:       -nan  MISS %:       -nan   MPKI: 0
L2C TOTAL     ACCESS:    3315753  HIT:    2440700  MISS:     875053  HIT %:    73.6092  MISS %:    26.3908   MPKI: 4.37468
L2C LOAD      ACCESS:       2920  HIT:          0  MISS:       2920  HIT %:          0  MISS %:        100   MPKI: 0.0145981
L2C RFO       ACCESS:     357706  HIT:          0  MISS:     357706  HIT %:          0  MISS %:        100   MPKI: 1.78829
L2C PREFETCH  ACCESS:    1592250  HIT:    1237456  MISS:     354794  HIT %:    77.7174  MISS %:    22.2826   MPKI: 1.77373
L2C WRITEBACK ACCESS:     357706  HIT:     199496  MISS:     158210  HIT %:    55.7709  MISS %:    44.2291   MPKI: 0.790945
PSCL5 TOTAL     ACCESS:    1005171  HIT:    1005171  MISS:          0  HIT %:        100  MISS %:          0   MPKI: 0
PSCL5 LOAD      ACCESS:          0  HIT:          0  MISS:          0  HIT %:       -nan  MISS %:       -nan   MPKI: 0
PSCL5 RFO       ACCESS:          0  HIT:          0  MISS:          0  HIT %:       -nan  MISS %:       -nan   MPKI: 0
PSCL5 PREFETCH  ACCESS:          0  HIT:          0  MISS:          0  HIT %:       -nan  MISS %:       -nan   MPKI: 0
PSCL5 WRITEBACK ACCESS:          0  HIT:          0  MISS:          0  HIT %:       -nan  MISS %:       -nan   MPKI: 0
PSCL4 TOTAL     ACCESS:    1005171  HIT:    1005171  MISS:          0  HIT %:        100  MISS %:          0   MPKI: 0
PSCL4 LOAD      ACCESS:          0  HIT:          0  MISS:          0  HIT %:       -nan  MISS %:       -nan   MPKI: 0
PSCL4 RFO       ACCESS:          0  HIT:          0  MISS:          0  HIT %:       -nan  MISS %:       -nan   MPKI: 0
PSCL4 PREFETCH  ACCESS:          0  HIT:          0  MISS:          0  HIT %:       -nan  MISS %:       -nan   MPKI: 0
PSCL4 WRITEBACK ACCESS:          0  HIT:          0  MISS:          0  HIT %:       -nan  MISS %:       -nan   MPKI: 0
PSCL3 TOTAL     ACCESS:    1005171  HIT:    1005171  MISS:          0  HIT %:        100  MISS %:          0   MPKI: 0
PSCL3 LOAD      ACCESS:          0  HIT:          0  MISS:          0  HIT %:       -nan  MISS %:       -nan   MPKI: 0
PSCL3 RFO       ACCESS:          0  HIT:          0  MISS:          0  HIT %:       -nan  MISS %:       -nan   MPKI: 0
PSCL3 PREFETCH  ACCESS:          0  HIT:          0  MISS:          0  HIT %:       -nan  MISS %:       -nan   MPKI: 0
PSCL3 WRITEBACK ACCESS:          0  HIT:          0  MISS:          0  HIT %:       -nan  MISS %:       -nan   MPKI: 0
PSCL2 TOTAL     ACCESS:    1003446  HIT:    1003424  MISS:         22  HIT %:    99.9978  MISS %: 0.00219244   MPKI: 0.000109985
PSCL2 LOAD      ACCESS:          0  HIT:          0  MISS:          0  HIT %:       -nan  MISS %:       -nan   MPKI: 0
PSCL2 RFO       ACCESS:          0  HIT:          0  MISS:          0  HIT %:       -nan  MISS %:       -nan   MPKI: 0
PSCL2 PREFETCH  ACCESS:          0  HIT:          0  MISS:          0  HIT %:       -nan  MISS %:       -nan   MPKI: 0
PSCL2 WRITEBACK ACCESS:          0  HIT:          0  MISS:          0  HIT %:       -nan  MISS %:       -nan   MPKI: 0
LLC TOTAL     ACCESS:    1075464  HIT:     330507  MISS:     744957  HIT %:    30.7316  MISS %:    69.2684   MPKI: 3.72429
LLC LOAD      ACCESS:       2920  HIT:          0  MISS:       2920  HIT %:          0  MISS %:        100   MPKI: 0.0145981
LLC RFO       ACCESS:     357706  HIT:          0  MISS:     357706  HIT %:          0  MISS %:        100   MPKI: 1.78829
LLC PREFETCH  ACCESS:     354794  HIT:          0  MISS:     354794  HIT %:          0  MISS %:        100   MPKI: 1.77373
LLC WRITEBACK ACCESS:     358621  HIT:     330505  MISS:      28116  HIT %:      92.16  MISS %:    7.84003   MPKI: 0.140561

RAW hits: 0
Loads Generated: 42780332
Loads sent to L1D: 42780332
Stores Generated: 22893196
Stores sent to L1D: 22893193

CPU 1 cumulative IPC: 1.14035 instructions: 200011272 cycles: 175394975
ITLB TOTAL     ACCESS:   33181856  HIT:   33181856  MISS:          0  HIT %:        100  MISS %:          0   MPKI: 0
ITLB LOAD      ACCESS:          0  HIT:          0  MISS:          0  HIT %:       -nan  MISS %:       -nan   MPKI: 0
ITLB RFO       ACCESS:          0  HIT:          0  MISS:          0  HIT %:       -nan  MISS %:       -nan   MPKI: 0
ITLB PREFETCH  ACCESS:          0  HIT:          0  MISS:          0  HIT %:       -nan  MISS %:       -nan   MPKI: 0
ITLB WRITEBACK ACCESS:          0  HIT:          0  MISS:          0  HIT %:       -nan  MISS %:       -nan   MPKI: 0
DTLB TOTAL     ACCESS:   33848126  HIT:   33836945  MISS:      11181  HIT %:     99.967  MISS %:  0.0330328   MPKI: 0.0559018
DTLB LOAD      ACCESS:          0  HIT:          0  MISS:          0  HIT %:       -nan  MISS %:       -nan   MPKI: 0
DTLB RFO       ACCESS:          0  HIT:          0  MISS:          0  HIT %:       -nan  MISS %:       -nan   MPKI: 0
DTLB PREFETCH  ACCESS:          0  HIT:          0  MISS:          0  HIT %:       -nan  MISS %:       -nan   MPKI: 0
DTLB WRITEBACK ACCESS:          0  HIT:          0  MISS:          0  HIT %:       -nan  MISS %:       -nan   MPKI: 0
STLB TOTAL     ACCESS:   10784275  HIT:   10773094  MISS:      11181  HIT %:    99.8963  MISS %:   0.103679   MPKI: 0.0559018
STLB LOAD      ACCESS:          0  HIT:          0  MISS:          0  HIT %:       -nan  MISS %:       -nan   MPKI: 0
STLB RFO       ACCESS:          0  HIT:          0  MISS:          0  HIT %:       -nan  MISS %:       -nan   MPKI: 0
STLB PREFETCH  ACCESS:          0  HIT:          0  MISS:          0  HIT %:       -nan  MISS %:       -nan   MPKI: 0
STLB WRITEBACK ACCESS:          0  HIT:          0  MISS:          0  HIT %:       -nan  MISS %:       -nan   MPKI: 0
L1D TOTAL     ACCESS:   77881163  HIT:   77165804  MISS:     715359  HIT %:    99.0815  MISS %:   0.918526   MPKI: 3.57659
L1D LOAD      ACCESS:   12470584  HIT:   12464880  MISS:       5704  HIT %:    99.9543  MISS %:  0.0457396   MPKI: 0.0285184
L1D RFO       ACCESS:   12447608  HIT:   12089929  MISS:     357679  HIT %:    97.1265  MISS %:    2.87348   MPKI: 1.78829
L1D PREFETCH  ACCESS:   52962971  HIT:   52610995  MISS:     351976  HIT %:    99.3354  MISS %:    0.66457   MPKI: 1.75978
L1D WRITEBACK ACCESS:          0  HIT:          0  MISS:          0  HIT %:       -nan  MISS %:       -nan   MPKI: 0
L1I TOTAL     ACCESS:   33181856  HIT:   33181856  MISS:          0  HIT %:        100  MISS %:          0   MPKI: 0
L1I LOAD      ACCESS:   33181856  HIT:   33181856  MISS:          0  HIT %:        100  MISS %:          0   MPKI: 0
L1I RFO       ACCESS:          0  HIT:          0  MISS:          0  HIT %:       -nan  MISS %:       -nan   MPKI: 0
L1I PREFETCH  ACCESS:          0  HIT:          0  MISS:          0  HIT %:       -nan  MISS %:       -nan   MPKI: 0
L1I WRITEBACK ACCESS:          0  HIT:          0  MISS:          0  HIT %:       -nan  MISS %:       -nan   MPKI: 0
L2C TOTAL     ACCESS:    3340433  HIT:    2455881  MISS:     884552  HIT %:    73.5198  MISS %:    26.4802   MPKI: 4.42251
L2C LOAD      ACCESS:       2916  HIT:          0  MISS:       2916  HIT %:          0  MISS %:        100   MPKI: 0.0145792
L2C RFO       ACCESS:     357679  HIT:          0  MISS:     357679  HIT %:          0  MISS %:        100   MPKI: 1.78829
L2C PREFETCH  ACCESS:    1614501  HIT:    1259737  MISS:     354764  HIT %:    78.0264  MISS %:    21.9736   MPKI: 1.77372
L2C WRITEBACK ACCESS:     357679  HIT:     189907  MISS:     167772  HIT %:    53.0943  MISS %:    46.9057   MPKI: 0.838813
PSCL5 TOTAL     ACCESS:    1007658  HIT:    1007658  MISS:          0  HIT %:        100  MISS %:          0   MPKI: 0
PSCL5 LOAD      ACCESS:          0  HIT:          0  MISS:          0  HIT %:       -nan  MISS %:       -nan   MPKI: 0
PSCL5 RFO       ACCESS:          0  HIT:          0  MISS:          0  HIT %:       -nan  MISS %:       -nan   MPKI: 0
PSCL5 PREFETCH  ACCESS:          0  HIT:          0  MISS:          0  HIT %:       -nan  MISS %:       -nan   MPKI: 0
PSCL5 WRITEBACK ACCESS:          0  HIT:          0  MISS:          0  HIT %:       -nan  MISS %:       -nan   MPKI: 0
PSCL4 TOTAL     ACCESS:    1007658  HIT:    1007658  MISS:          0  HIT %:        100  MISS %:          0   MPKI: 0
PSCL4 LOAD      ACCESS:          0  HIT:          0  MISS:          0  HIT %:       -nan  MISS %:       -nan   MPKI: 0
PSCL4 RFO       ACCESS:          0  HIT:          0  MISS:          0  HIT %:       -nan  MISS %:       -nan   MPKI: 0
PSCL4 PREFETCH  ACCESS:          0  HIT:          0  MISS:          0  HIT %:       -nan  MISS %:       -nan   MPKI: 0
PSCL4 WRITEBACK ACCESS:          0  HIT:          0  MISS:          0  HIT %:       -nan  MISS %:       -nan   MPKI: 0
PSCL3 TOTAL     ACCESS:    1007658  HIT:    1007658  MISS:          0  HIT %:        100  MISS %:          0   MPKI: 0
PSCL3 LOAD      ACCESS:          0  HIT:          0  MISS:          0  HIT %:       -nan  MISS %:       -nan   MPKI: 0
PSCL3 RFO       ACCESS:          0  HIT:          0  MISS:          0  HIT %:       -nan  MISS %:       -nan   MPKI: 0
PSCL3 PREFETCH  ACCESS:          0  HIT:          0  MISS:          0  HIT %:       -nan  MISS %:       -nan   MPKI: 0
PSCL3 WRITEBACK ACCESS:          0  HIT:          0  MISS:          0  HIT %:       -nan  MISS %:       -nan   MPKI: 0
PSCL2 TOTAL     ACCESS:    1005813  HIT:    1005791  MISS:         22  HIT %:    99.9978  MISS %: 0.00218729   MPKI: 0.000109994
PSCL2 LOAD      ACCESS:          0  HIT:          0  MISS:          0  HIT %:       -nan  MISS %:       -nan   MPKI: 0
PSCL2 RFO       ACCESS:          0  HIT:          0  MISS:          0  HIT %:       -nan  MISS %:       -nan   MPKI: 0
PSCL2 PREFETCH  ACCESS:          0  HIT:          0  MISS:          0  HIT %:       -nan  MISS %:       -nan   MPKI: 0
PSCL2 WRITEBACK ACCESS:          0  HIT:          0  MISS:          0  HIT %:       -nan  MISS %:       -nan   MPKI: 0
LLC TOTAL     ACCESS:    1074702  HIT:     332491  MISS:     742211  HIT %:     30.938  MISS %:     69.062   MPKI: 3.71085
LLC LOAD      ACCESS:       2916  HIT:          0  MISS:       2916  HIT %:          0  MISS %:        100   MPKI: 0.0145792
LLC RFO       ACCESS:     357679  HIT:          0  MISS:     357679  HIT %:          0  MISS %:        100   MPKI: 1.78829
LLC PREFETCH  ACCESS:     354764  HIT:          0  MISS:     354764  HIT %:          0  MISS %:        100   MPKI: 1.77372
LLC WRITEBACK ACCESS:     357922  HIT:     332491  MISS:      25431  HIT %:    92.8948  MISS %:    7.10518   MPKI: 0.127148

RAW hits: 0
Loads Generated: 42777047
Loads sent to L1D: 42777046
Stores Generated: 22891436
Stores sent to L1D: 22891437

CPU 2 cumulative IPC: 1.14037 instructions: 200014810 cycles: 175394975
ITLB TOTAL     ACCESS:   33182447  HIT:   33182447  MISS:          0  HIT %:        100  MISS %:          0   MPKI: 0
ITLB LOAD      ACCESS:          0  HIT:          0  MISS:          0  HIT %:       -nan  MISS %:       -nan   MPKI: 0
ITLB RFO       ACCESS:          0  HIT:          0  MISS:          0  HIT %:       -nan  MISS %:       -nan   MPKI: 0
ITLB PREFETCH  ACCESS:          0  HIT:          0  MISS:          0  HIT %:       -nan  MISS %:       -nan   MPKI: 0
ITLB WRITEBACK ACCESS:          0  HIT:          0  MISS:          0  HIT %:       -nan  MISS %:       -nan   MPKI: 0
DTLB TOTAL     ACCESS:   33848153  HIT:   33836972  MISS:      11181  HIT %:     99.967  MISS %:  0.0330328   MPKI: 0.0559009
DTLB LOAD      ACCESS:          0  HIT:          0  MISS:          0  HIT %:       -nan  MISS %:       -nan   MPKI: 0
DTLB RFO       ACCESS:          0  HIT:          0  MISS:          0  HIT %:       -nan  MISS %:       -nan   MPKI: 0
DTLB PREFETCH  ACCESS:          0  HIT:          0  MISS:          0  HIT %:       -nan  MISS %:       -nan   MPKI: 0
DTLB WRITEBACK ACCESS:          0  HIT:          0  MISS:          0  HIT %:       -nan  MISS %:       -nan   MPKI: 0
STLB TOTAL     ACCESS:   10476624  HIT:   10465441  MISS:      11183  HIT %:    99.8933  MISS %:   0.106742   MPKI: 0.0559109
STLB LOAD      ACCESS:          0  HIT:          0  MISS:          0  HIT %:       -nan  MISS %:       -nan   MPKI: 0
STLB RFO       ACCESS:          0  HIT:          0  MISS:          0  HIT %:       -nan  MISS %:       -nan   MPKI: 0
STLB PREFETCH  ACCESS:          0  HIT:          0  MISS:          0  HIT %:       -nan  MISS %:       -nan   MPKI: 0
STLB WRITEBACK ACCESS:          0  HIT:          0  MISS:          0  HIT %:       -nan  MISS %:       -nan   MPKI: 0
L1D TOTAL     ACCESS:   76531114  HIT:   75815737  MISS:     715377  HIT %:    99.0652  MISS %:   0.934753   MPKI: 3.57662
L1D LOAD      ACCESS:   12470899  HIT:   12465237  MISS:       5662  HIT %:    99.9546  MISS %:  0.0454017   MPKI: 0.0283079
L1D RFO       ACCESS:   12472260  HIT:   12114575  MISS:     357685  HIT %:    97.1322  MISS %:    2.86784   MPKI: 1.78829
L1D PREFETCH  ACCESS:   51587955  HIT:   51235925  MISS:     352030  HIT %:    99.3176  MISS %:   0.682388   MPKI: 1.76002
L1D WRITEBACK ACCESS:          0  HIT:          0  MISS:          0  HIT %:       -nan  MISS %:       -nan   MPKI: 0
L1I TOTAL     ACCESS:   33182446  HIT:   33182446  MISS:          0  HIT %:        100  MISS %:          0   MPKI: 0
L1I LOAD      ACCESS:   33182446  HIT:   33182446  MISS:          0  HIT %:        100  MISS %:          0   MPKI: 0
L1I RFO       ACCESS:          0  HIT:          0  MISS:          0  HIT %:       -nan  MISS %:       -nan   MPKI: 0
L1I PREFETCH  ACCESS:          0  HIT:          0  MISS:          0  HIT %:       -nan  MISS %:       -nan   MPKI: 0
L1I WRITEBACK ACCESS:          0  HIT:          0  MISS:          0  HIT %:       -nan  MISS %:       -nan   MPKI: 0
L2C TOTAL     ACCESS:    3690295  HIT:    2811376  MISS:     878919  HIT %:     76.183  MISS %:     23.817   MPKI: 4.39427
L2C LOAD      ACCESS:       2877  HIT:          0  MISS:       2877  HIT %:          0  MISS %:        100   MPKI: 0.0143839
L2C RFO       ACCESS:     357685  HIT:          0  MISS:     357685  HIT %:          0  MISS %:        100   MPKI: 1.78829
L2C PREFETCH  ACCESS:    1564285  HIT:    1209457  MISS:     354828  HIT %:    77.3169  MISS %:    22.6831   MPKI: 1.77401
L2C WRITEBACK ACCESS:     357680  HIT:     195574  MISS:     162106  HIT %:    54.6785  MISS %:    45.3215   MPKI: 0.81047
PSCL5 TOTAL     ACCESS:    1407768  HIT:    1407768  MISS:          0  HIT %:        100  MISS %:          0   MPKI: 0
PSCL5 LOAD      ACCESS:          0  HIT:          0  MISS:          0  HIT %:       -nan  MISS %:       -nan   MPKI: 0
PSCL5 RFO       ACCESS:          0  HIT:          0  MISS:          0  HIT %:       -nan  MISS %:       -nan   MPKI: 0
PSCL5 PREFETCH  ACCESS:          0  HIT:          0  MISS:          0  HIT %:       -nan  MISS %:       -nan   MPKI: 0
PSCL5 WRITEBACK ACCESS:          0  HIT:          0  MISS:          0  HIT %:       -nan  MISS %:       -nan   MPKI: 0
PSCL4 TOTAL     ACCESS:    1407768  HIT:    1407768  MISS:          0  HIT %:        100  MISS %:          0   MPKI: 0
PSCL4 LOAD      ACCESS:          0  HIT:          0  MISS:          0  HIT %:       -nan  MISS %:       -nan   MPKI: 0
PSCL4 RFO       ACCESS:          0  HIT:          0  MISS:          0  HIT %:       -nan  MISS %:       -nan   MPKI: 0
PSCL4 PREFETCH  ACCESS:          0  HIT:          0  MISS:          0  HIT %:       -nan  MISS %:       -nan   MPKI: 0
PSCL4 WRITEBACK ACCESS:          0  HIT:          0  MISS:          0  HIT %:       -nan  MISS %:       -nan   MPKI: 0
PSCL3 TOTAL     ACCESS:    1407768  HIT:    1407768  MISS:          0  HIT %:        100  MISS %:          0   MPKI: 0
PSCL3 LOAD      ACCESS:          0  HIT:          0  MISS:          0  HIT %:       -nan  MISS %:       -nan   MPKI: 0
PSCL3 RFO       ACCESS:          0  HIT:          0  MISS:          0  HIT %:       -nan  MISS %:       -nan   MPKI: 0
PSCL3 PREFETCH  ACCESS:          0  HIT:          0  MISS:          0  HIT %:       -nan  MISS %:       -nan   MPKI: 0
PSCL3 WRITEBACK ACCESS:          0  HIT:          0  MISS:          0  HIT %:       -nan  MISS %:       -nan   MPKI: 0
PSCL2 TOTAL     ACCESS:    1397337  HIT:    1397315  MISS:         22  HIT %:    99.9984  MISS %: 0.00157442   MPKI: 0.000109992
PSCL2 LOAD      ACCESS:          0  HIT:          0  MISS:          0  HIT %:       -nan  MISS %:       -nan   MPKI: 0
PSCL2 RFO       ACCESS:          0  HIT:          0  MISS:          0  HIT %:       -nan  MISS %:       -nan   MPKI: 0
PSCL2 PREFETCH  ACCESS:          0  HIT:          0  MISS:          0  HIT %:       -nan  MISS %:       -nan   MPKI: 0
PSCL2 WRITEBACK ACCESS:          0  HIT:          0  MISS:          0  HIT %:       -nan  MISS %:       -nan   MPKI: 0
LLC TOTAL     ACCESS:    1073752  HIT:     330157  MISS:     743595  HIT %:     30.748  MISS %:     69.252   MPKI: 3.7177
LLC LOAD      ACCESS:       2877  HIT:          0  MISS:       2877  HIT %:          0  MISS %:        100   MPKI: 0.0143839
LLC RFO       ACCESS:     357685  HIT:          0  MISS:     357685  HIT %:          0  MISS %:        100   MPKI: 1.78829
LLC PREFETCH  ACCESS:     354828  HIT:          0  MISS:     354828  HIT %:          0  MISS %:        100   MPKI: 1.77401
LLC WRITEBACK ACCESS:     356939  HIT:     330156  MISS:      26783  HIT %:    92.4965  MISS %:    7.50352   MPKI: 0.133905

RAW hits: 0
Loads Generated: 42777804
Loads sent to L1D: 42777802
Stores Generated: 22891843
Stores sent to L1D: 22891842

CPU 3 cumulative IPC: 1.14028 instructions: 200000001 cycles: 175394975
ITLB TOTAL     ACCESS:   33180041  HIT:   33180041  MISS:          0  HIT %:        100  MISS %:          0   MPKI: 0
ITLB LOAD      ACCESS:          0  HIT:          0  MISS:          0  HIT %:       -nan  MISS %:       -nan   MPKI: 0
ITLB RFO       ACCESS:          0  HIT:          0  MISS:          0  HIT %:       -nan  MISS %:       -nan   MPKI: 0
ITLB PREFETCH  ACCESS:          0  HIT:          0  MISS:          0  HIT %:       -nan  MISS %:       -nan   MPKI: 0
ITLB WRITEBACK ACCESS:          0  HIT:          0  MISS:          0  HIT %:       -nan  MISS %:       -nan   MPKI: 0
DTLB TOTAL     ACCESS:   33846350  HIT:   33835173  MISS:      11177  HIT %:     99.967  MISS %:  0.0330228   MPKI: 0.055885
DTLB LOAD      ACCESS:          0  HIT:          0  MISS:          0  HIT %:       -nan  MISS %:       -nan   MPKI: 0
DTLB RFO       ACCESS:          0  HIT:          0  MISS:          0  HIT %:       -nan  MISS %:       -nan   MPKI: 0
DTLB PREFETCH  ACCESS:          0  HIT:          0  MISS:          0  HIT %:       -nan  MISS %:       -nan   MPKI: 0
DTLB WRITEBACK ACCESS:          0  HIT:          0  MISS:          0  HIT %:       -nan  MISS %:       -nan   MPKI: 0
STLB TOTAL     ACCESS:   10783555  HIT:   10772378  MISS:      11177  HIT %:    99.8964  MISS %:   0.103649   MPKI: 0.055885
STLB LOAD      ACCESS:          0  HIT:          0  MISS:          0  HIT %:       -nan  MISS %:       -nan   MPKI: 0
STLB RFO       ACCESS:          0  HIT:          0  MISS:          0  HIT %:       -nan  MISS %:       -nan   MPKI: 0
STLB PREFETCH  ACCESS:          0  HIT:          0  MISS:          0  HIT %:       -nan  MISS %:       -nan   MPKI: 0
STLB WRITEBACK ACCESS:          0  HIT:          0  MISS:          0  HIT %:       -nan  MISS %:       -nan   MPKI: 0
L1D TOTAL     ACCESS:   77873177  HIT:   77157864  MISS:     715313  HIT %:    99.0814  MISS %:   0.918561   MPKI: 3.57656
L1D LOAD      ACCESS:   12470232  HIT:   12464561  MISS:       5671  HIT %:    99.9545  MISS %:  0.0454763   MPKI: 0.028355
L1D RFO       ACCESS:   12447557  HIT:   12089900  MISS:     357657  HIT %:    97.1267  MISS %:    2.87331   MPKI: 1.78828
L1D PREFETCH  ACCESS:   52955388  HIT:   52603403  MISS:     351985  HIT %:    99.3353  MISS %:   0.664682   MPKI: 1.75992
L1D WRITEBACK ACCESS:          0  HIT:          0  MISS:          0  HIT %:       -nan  MISS %:       -nan   MPKI: 0
L1I TOTAL     ACCESS:   33180040  HIT:   33180040  MISS:          0  HIT %:        100  MISS %:          0   MPKI: 0
L1I LOAD      ACCESS:   33180040  HIT:   33180040  MISS:          0  HIT %:        100  MISS %:          0   MPKI: 0
L1I RFO       ACCESS:          0  HIT:          0  MISS:          0  HIT %:       -nan  MISS %:       -nan   MPKI: 0
L1I PREFETCH  ACCESS:          0  HIT:          0  MISS:          0  HIT %:       -nan  MISS %:       -nan   MPKI: 0
L1I WRITEBACK ACCESS:          0  HIT:          0  MISS:          0  HIT %:       -nan  MISS %:       -nan   MPKI: 0
L2C TOTAL     ACCESS:    3336037  HIT:    2452361  MISS:     883676  HIT %:    73.5112  MISS %:    26.4888   MPKI: 4.41838
L2C LOAD      ACCESS:       2915  HIT:          0  MISS:       2915  HIT %:          0  MISS %:        100   MPKI: 0.014575
L2C RFO       ACCESS:     357657  HIT:          0  MISS:     357657  HIT %:          0  MISS %:        100   MPKI: 1.78828
L2C PREFETCH  ACCESS:    1612398  HIT:    1257662  MISS:     354736  HIT %:    77.9995  MISS %:    22.0005   MPKI: 1.77368
L2C WRITEBACK ACCESS:     357657  HIT:     190708  MISS:     166949  HIT %:    53.3215  MISS %:    46.6785   MPKI: 0.834745
PSCL5 TOTAL     ACCESS:    1005410  HIT:    1005410  MISS:          0  HIT %:        100  MISS %:          0   MPKI: 0
PSCL5 LOAD      ACCESS:          0  HIT:          0  MISS:          0  HIT %:       -nan  MISS %:       -nan   MPKI: 0
PSCL5 RFO       ACCESS:          0  HIT:          0  MISS:          0  HIT %:       -nan  MISS %:       -nan   MPKI: 0
PSCL5 PREFETCH  ACCESS:          0  HIT:          0  MISS:          0  HIT %:       -nan  MISS %:       -nan   MPKI: 0
PSCL5 WRITEBACK ACCESS:          0  HIT:          0  MISS:          0  HIT %:       -nan  MISS %:       -nan   MPKI: 0
PSCL4 TOTAL     ACCESS:    1005410  HIT:    1005410  MISS:          0  HIT %:        100  MISS %:          0   MPKI: 0
PSCL4 LOAD      ACCESS:          0  HIT:          0  MISS:          0  HIT %:       -nan  MISS %:       -nan   MPKI: 0
PSCL4 RFO       ACCESS:          0  HIT:          0  MISS:          0  HIT %:       -nan  MISS %:       -nan   MPKI: 0
PSCL4 PREFETCH  ACCESS:          0  HIT:          0  MISS:          0  HIT %:       -nan  MISS %:       -nan   MPKI: 0
PSCL4 WRITEBACK ACCESS:          0  HIT:          0  MISS:          0  HIT %:       -nan  MISS %:       -nan   MPKI: 0
PSCL3 TOTAL     ACCESS:    1005410  HIT:    1005410  MISS:          0  HIT %:        100  MISS %:          0   MPKI: 0
PSCL3 LOAD      ACCESS:          0  HIT:          0  MISS:          0  HIT %:       -nan  MISS %:       -nan   MPKI: 0
PSCL3 RFO       ACCESS:          0  HIT:          0  MISS:          0  HIT %:       -nan  MISS %:       -nan   MPKI: 0
PSCL3 PREFETCH  ACCESS:          0  HIT:          0  MISS:          0  HIT %:       -nan  MISS %:       -nan   MPKI: 0
PSCL3 WRITEBACK ACCESS:          0  HIT:          0  MISS:          0  HIT %:       -nan  MISS %:       -nan   MPKI: 0
PSCL2 TOTAL     ACCESS:    1003397  HIT:    1003375  MISS:         22  HIT %:    99.9978  MISS %: 0.00219255   MPKI: 0.00011
PSCL2 LOAD      ACCESS:          0  HIT:          0  MISS:          0  HIT %:       -nan  MISS %:       -nan   MPKI: 0
PSCL2 RFO       ACCESS:          0  HIT:          0  MISS:          0  HIT %:       -nan  MISS %:       -nan   MPKI: 0
PSCL2 PREFETCH  ACCESS:          0  HIT:          0  MISS:          0  HIT %:       -nan  MISS %:       -nan   MPKI: 0
PSCL2 WRITEBACK ACCESS:          0  HIT:          0  MISS:          0  HIT %:       -nan  MISS %:       -nan   MPKI: 0
LLC TOTAL     ACCESS:    1075423  HIT:     330638  MISS:     744785  HIT %:    30.7449  MISS %:    69.2551   MPKI: 3.72392
LLC LOAD      ACCESS:       2915  HIT:          0  MISS:       2915  HIT %:          0  MISS %:        100   MPKI: 0.014575
LLC RFO       ACCESS:     357657  HIT:          0  MISS:     357657  HIT %:          0  MISS %:        100   MPKI: 1.78828
LLC PREFETCH  ACCESS:     354736  HIT:          0  MISS:     354736  HIT %:          0  MISS %:        100   MPKI: 1.77368
LLC WRITEBACK ACCESS:     358696  HIT:     330638  MISS:      28058  HIT %:    92.1778  MISS %:    7.82222   MPKI: 0.14029

RAW hits: 0
Loads Generated: 42774634
Loads sent to L1D: 42774634
Stores Generated: 22890147
Stores sent to L1D: 22890146

Region of Interest Statistics

CPU 0 cumulative IPC: 1.14043 instructions: 200000001 cycles: 175371761
ITLB TOTAL     ACCESS:   33179942  HIT:   33179942  MISS:          0  HIT %:        100  MISS %:          0   MPKI: 0
ITLB LOAD TRANSLATION ACCESS:   33179942  HIT:   33179942  MISS:          0  HIT %:        100  MISS %:          0   MPKI: 0
ITLB PREFETCH  REQUESTED:          0  ISSUED:          0  USEFUL:          0  USELESS:          0
ITLB USEFUL LOAD PREFETCHES:          0 PREFETCH ISSUED TO LOWER LEVEL:          0  ACCURACY: -nan
ITLB TIMELY PREFETCHES:          0 LATE PREFETCHES: 0 DROPPED PREFETCHES: 0
ITLB PREFETCHES SAME FILL-ORIGIN LEVEL: 0 DIFFERENT FILL-ORIGIN LEVEL: 0
ITLB AVERAGE MISS LATENCY: -nan cycles
ITLB RQ	ACCESS:   33184358	FORWARD:          0	MERGED:          0	TO_CACHE:   33184358

DTLB TOTAL     ACCESS:   33845475  HIT:   33834297  MISS:      11178  HIT %:     99.967  MISS %:  0.0330266   MPKI: 0.05589
DTLB LOAD TRANSLATION ACCESS:   33845475  HIT:   33834297  MISS:      11178  HIT %:     99.967  MISS %:  0.0330266   MPKI: 0.05589
DTLB PREFETCH  REQUESTED:          0  ISSUED:          0  USEFUL:          0  USELESS:          0
DTLB USEFUL LOAD PREFETCHES:          0 PREFETCH ISSUED TO LOWER LEVEL:          0  ACCURACY: -nan
DTLB TIMELY PREFETCHES:          0 LATE PREFETCHES: 0 DROPPED PREFETCHES: 0
DTLB PREFETCHES SAME FILL-ORIGIN LEVEL: 0 DIFFERENT FILL-ORIGIN LEVEL: 0
DTLB AVERAGE MISS LATENCY: 135.228 cycles
DTLB RQ	ACCESS:   35388391	FORWARD:          0	MERGED:    1505148	TO_CACHE:   33883243

STLB TOTAL     ACCESS:   10782730  HIT:   10771552  MISS:      11178  HIT %:    99.8963  MISS %:   0.103666   MPKI: 0.05589
STLB LOAD TRANSLATION ACCESS:      11178  HIT:          0  MISS:      11178  HIT %:          0  MISS %:        100   MPKI: 0.05589
STLB TRANSLATION FROM L1D PREFETCHER ACCESS:   10771552  HIT:   10771552  MISS:          0  HIT %:        100  MISS %:          0   MPKI: 0
STLB PREFETCH  REQUESTED:          0  ISSUED:          0  USEFUL:          1  USELESS:          0
STLB USEFUL LOAD PREFETCHES:          1 PREFETCH ISSUED TO LOWER LEVEL:          0  ACCURACY: inf
STLB TIMELY PREFETCHES:          1 LATE PREFETCHES: 976 DROPPED PREFETCHES: 993014
STLB PREFETCHES SAME FILL-ORIGIN LEVEL: 0 DIFFERENT FILL-ORIGIN LEVEL: 0
STLB AVERAGE MISS LATENCY: 126.526 cycles
STLB RQ	ACCESS:   59715353	FORWARD:          0	MERGED:   47896120	TO_CACHE:   11819233

STLB Hit, L1D data hit: 0
STLB Hit, L2C data hit: 0
STLB Hit, LLC data hit: 0
STLB Hit, LLC data miss: 0
STLB STLB hints to L2: 0
L1D TOTAL     ACCESS:   77780655  HIT:   77065344  MISS:     715311  HIT %:    99.0803  MISS %:   0.919652   MPKI: 3.57655
L1D LOAD      ACCESS:   12469097  HIT:   12463426  MISS:       5671  HIT %:    99.9545  MISS %:  0.0454804   MPKI: 0.028355
L1D RFO       ACCESS:   12379642  HIT:   12021984  MISS:     357658  HIT %:    97.1109  MISS %:    2.88908   MPKI: 1.78829
L1D PREFETCH  ACCESS:   52931916  HIT:   52579934  MISS:     351982  HIT %:     99.335  MISS %:   0.664971   MPKI: 1.75991
L1D PREFETCH  REQUESTED:  152807576  ISSUED:  152807576  USEFUL:     352035  USELESS:          0
L1D USEFUL LOAD PREFETCHES:     352035 PREFETCH ISSUED TO LOWER LEVEL:    2177104  ACCURACY: 16.1699
L1D TIMELY PREFETCHES:     352035 LATE PREFETCHES: 2751 DROPPED PREFETCHES: 2825893
L1D PREFETCHES SAME FILL-ORIGIN LEVEL: 354793 DIFFERENT FILL-ORIGIN LEVEL: 1822311
L1D AVERAGE MISS LATENCY: 202.843 cycles
L1D RQ	ACCESS:   42780332	FORWARD:          0	MERGED:   30285134	TO_CACHE:   12495198
L1D WQ	ACCESS:   22893193	FORWARD:          0	MERGED:          0	TO_CACHE:   22893193
L1D PQ	ACCESS:   93103404	FORWARD:          0	MERGED:   33399232	TO_CACHE:   59704172

L1D UNIQUE REGIONS ACCESSED: 0
L1D REGIONS CONFLICTS: 0
L1D Cross Page Prefetch Requests: 14190013
L1D Same Page Prefetch Requests: 125841018
L1D ROI Sum of L1D PQ occupancy: 807026561
L1D PREFETCHES PUSHED FROM L2C: 0
L1I TOTAL     ACCESS:   33179942  HIT:   33179942  MISS:          0  HIT %:        100  MISS %:          0   MPKI: 0
L1I LOAD      ACCESS:   33179942  HIT:   33179942  MISS:          0  HIT %:        100  MISS %:          0   MPKI: 0
L1I PREFETCH  REQUESTED:          0  ISSUED:          0  USEFUL:          0  USELESS:          0
L1I USEFUL LOAD PREFETCHES:          0 PREFETCH ISSUED TO LOWER LEVEL:          0  ACCURACY: -nan
L1I TIMELY PREFETCHES:          0 LATE PREFETCHES: 0 DROPPED PREFETCHES: 0
L1I PREFETCHES SAME FILL-ORIGIN LEVEL: 0 DIFFERENT FILL-ORIGIN LEVEL: 0
L1I AVERAGE MISS LATENCY: -nan cycles
L1I RQ	ACCESS:   55499350	FORWARD:          0	MERGED:   22314992	TO_CACHE:   33184358

BTB TOTAL     ACCESS:   45780290  HIT:   45780287  MISS:          3  HIT %:        100  MISS %: 6.55304e-06   MPKI: 1.5e-05
BTB BRANCH_DIRECT_JUMP	ACCESS:          0  HIT:          0  MISS:          0
BTB BRANCH_INDIRECT	ACCESS:          0  HIT:          0  MISS:          0
BTB BRANCH_CONDITIONAL	ACCESS:   45780290  HIT:   45780287  MISS:          3
BTB BRANCH_DIRECT_CALL	ACCESS:          0  HIT:          0  MISS:          0
BTB BRANCH_INDIRECT_CALL	ACCESS:          0  HIT:          0  MISS:          0
BTB BRANCH_RETURN	ACCESS:          0  HIT:          0  MISS:          0
BTB BRANCH_OTHER ACCESS:          0  HIT:          0  MISS:          0

L2C TOTAL     ACCESS:    3314600  HIT:    2439678  MISS:     874922  HIT %:     73.604  MISS %:     26.396   MPKI: 4.37461
L2C LOAD      ACCESS:       2920  HIT:          0  MISS:       2920  HIT %:          0  MISS %:        100   MPKI: 0.0146
L2C DATA LOAD MPKI: 0.0146
L2C INSTRUCTION LOAD MPKI: 0
L2C RFO       ACCESS:     357658  HIT:          0  MISS:     357658  HIT %:          0  MISS %:        100   MPKI: 1.78829
L2C PREFETCH  ACCESS:    1591195  HIT:    1236460  MISS:     354735  HIT %:    77.7064  MISS %:    22.2936   MPKI: 1.77367
L2C DATA PREFETCH MPKI: 1.77367
L2C INSTRUCTION PREFETCH MPKI: 0
L2C WRITEBACK ACCESS:     357658  HIT:     199472  MISS:     158186  HIT %:    55.7717  MISS %:    44.2283   MPKI: 0.79093
L2C LOAD TRANSLATION ACCESS:      11179  HIT:      10466  MISS:        713  HIT %:     93.622  MISS %:    6.37803   MPKI: 0.003565
L2C TRANSLATION FROM L1D PREFETCHER ACCESS:     993990  HIT:     993280  MISS:        710  HIT %:    99.9286  MISS %:  0.0714293   MPKI: 0.00355
L2C PREFETCH  REQUESTED:          0  ISSUED:          0  USEFUL:        710  USELESS:     353939
L2C USEFUL LOAD PREFETCHES:        710 PREFETCH ISSUED TO LOWER LEVEL:     354794  ACCURACY: 0.200116
L2C TIMELY PREFETCHES:        710 LATE PREFETCHES: 0 DROPPED PREFETCHES: 0
L2C PREFETCHES SAME FILL-ORIGIN LEVEL: 74750 DIFFERENT FILL-ORIGIN LEVEL: 0
L2C AVERAGE MISS LATENCY: 173.872 cycles
L2C RQ	ACCESS:    1365797	FORWARD:          0	MERGED:          0	TO_CACHE:    1365797
L2C WQ	ACCESS:     357706	FORWARD:          0	MERGED:          0	TO_CACHE:     357706
L2C PQ	ACCESS:    2177104	FORWARD:          0	MERGED:        361	TO_CACHE:    2176743

L2C Instructions Evicting Data 0
L2C Translations Evicting Data 1423
L2C Data Evicting Data 714152
L2C Instructions Evicting Instructions 0
L2C Translations Evicting Instructions 0
L2C Data Evicting Instructions 0
L2C Instructions Evicting Translations 0
L2C Translations Evicting Translations 0
L2C Data Evicting Translations 1268
L2C Dense regions hint from L2: 0
PSCL5 TOTAL     ACCESS:    1005170  HIT:    1005170  MISS:          0  HIT %:        100  MISS %:          0   MPKI: 0
PSCL5 LOAD TRANSLATION ACCESS:      11179  HIT:      11179  MISS:          0  HIT %:        100  MISS %:          0   MPKI: 0
PSCL5 TRANSLATION FROM L1D PREFETCHER ACCESS:     993991  HIT:     993991  MISS:          0  HIT %:        100  MISS %:          0   MPKI: 0
PSCL5 PREFETCH  REQUESTED:          0  ISSUED:          0  USEFUL:          0  USELESS:          0
PSCL5 USEFUL LOAD PREFETCHES:          0 PREFETCH ISSUED TO LOWER LEVEL:          0  ACCURACY: -nan
PSCL5 TIMELY PREFETCHES:          0 LATE PREFETCHES: 0 DROPPED PREFETCHES: 0
PSCL5 PREFETCHES SAME FILL-ORIGIN LEVEL: 0 DIFFERENT FILL-ORIGIN LEVEL: 0

PSCL4 TOTAL     ACCESS:    1005170  HIT:    1005170  MISS:          0  HIT %:        100  MISS %:          0   MPKI: 0
PSCL4 LOAD TRANSLATION ACCESS:      11179  HIT:      11179  MISS:          0  HIT %:        100  MISS %:          0   MPKI: 0
PSCL4 TRANSLATION FROM L1D PREFETCHER ACCESS:     993991  HIT:     993991  MISS:          0  HIT %:        100  MISS %:          0   MPKI: 0
PSCL4 PREFETCH  REQUESTED:          0  ISSUED:          0  USEFUL:          0  USELESS:          0
PSCL4 USEFUL LOAD PREFETCHES:          0 PREFETCH ISSUED TO LOWER LEVEL:          0  ACCURACY: -nan
PSCL4 TIMELY PREFETCHES:          0 LATE PREFETCHES: 0 DROPPED PREFETCHES: 0
PSCL4 PREFETCHES SAME FILL-ORIGIN LEVEL: 0 DIFFERENT FILL-ORIGIN LEVEL: 0

PSCL3 TOTAL     ACCESS:    1005170  HIT:    1005170  MISS:          0  HIT %:        100  MISS %:          0   MPKI: 0
PSCL3 LOAD TRANSLATION ACCESS:      11179  HIT:      11179  MISS:          0  HIT %:        100  MISS %:          0   MPKI: 0
PSCL3 TRANSLATION FROM L1D PREFETCHER ACCESS:     993991  HIT:     993991  MISS:          0  HIT %:        100  MISS %:          0   MPKI: 0
PSCL3 PREFETCH  REQUESTED:          0  ISSUED:          0  USEFUL:          0  USELESS:          0
PSCL3 USEFUL LOAD PREFETCHES:          0 PREFETCH ISSUED TO LOWER LEVEL:          0  ACCURACY: -nan
PSCL3 TIMELY PREFETCHES:          0 LATE PREFETCHES: 0 DROPPED PREFETCHES: 0
PSCL3 PREFETCHES SAME FILL-ORIGIN LEVEL: 0 DIFFERENT FILL-ORIGIN LEVEL: 0

PSCL2 TOTAL     ACCESS:    1003445  HIT:    1003423  MISS:         22  HIT %:    99.9978  MISS %: 0.00219245   MPKI: 0.00011
PSCL2 LOAD TRANSLATION ACCESS:      11179  HIT:      11157  MISS:         22  HIT %:    99.8032  MISS %:   0.196798   MPKI: 0.00011
PSCL2 TRANSLATION FROM L1D PREFETCHER ACCESS:     992266  HIT:     992266  MISS:          0  HIT %:        100  MISS %:          0   MPKI: 0
PSCL2 PREFETCH  REQUESTED:          0  ISSUED:          0  USEFUL:          0  USELESS:          0
PSCL2 USEFUL LOAD PREFETCHES:          0 PREFETCH ISSUED TO LOWER LEVEL:          0  ACCURACY: -nan
PSCL2 TIMELY PREFETCHES:          0 LATE PREFETCHES: 0 DROPPED PREFETCHES: 0
PSCL2 PREFETCHES SAME FILL-ORIGIN LEVEL: 0 DIFFERENT FILL-ORIGIN LEVEL: 0

LLC TOTAL     ACCESS:    1075299  HIT:     330449  MISS:     744850  HIT %:    30.7309  MISS %:    69.2691   MPKI: 3.72425
LLC LOAD      ACCESS:       2920  HIT:          0  MISS:       2920  HIT %:          0  MISS %:        100   MPKI: 0.0146
LLC RFO       ACCESS:     357658  HIT:          0  MISS:     357658  HIT %:          0  MISS %:        100   MPKI: 1.78829
LLC PREFETCH  ACCESS:     354735  HIT:          0  MISS:     354735  HIT %:          0  MISS %:        100   MPKI: 1.77367
LLC WRITEBACK ACCESS:     358563  HIT:     330447  MISS:      28116  HIT %:    92.1587  MISS %:     7.8413   MPKI: 0.14058
LLC LOAD TRANSLATION ACCESS:        713  HIT:          2  MISS:        711  HIT %:   0.280505  MISS %:    99.7195   MPKI: 0.003555
LLC TRANSLATION FROM L1D PREFETCHER ACCESS:        710  HIT:          0  MISS:        710  HIT %:          0  MISS %:        100   MPKI: 0.00355
LLC PREFETCH  REQUESTED:          0  ISSUED:          0  USEFUL:          0  USELESS:    1417981
LLC USEFUL LOAD PREFETCHES:          0 PREFETCH ISSUED TO LOWER LEVEL:    1419125  ACCURACY: 0
LLC TIMELY PREFETCHES:          0 LATE PREFETCHES: 0 DROPPED PREFETCHES: 0
LLC PREFETCHES SAME FILL-ORIGIN LEVEL: 0 DIFFERENT FILL-ORIGIN LEVEL: 0
LLC AVERAGE MISS LATENCY: 694.082 cycles
LLC RQ	ACCESS:    1448042	FORWARD:          0	MERGED:          0	TO_CACHE:    1448042
LLC WQ	ACCESS:    1432178	FORWARD:          0	MERGED:          0	TO_CACHE:    1432178
LLC PQ	ACCESS:    1419125	FORWARD:          0	MERGED:          0	TO_CACHE:    1419125

LLC Dense regions hint to LLC: 0

RAW hits: 0
Loads Generated: 42774640
Loads sent to L1D: 42774640
Stores Generated: 22890150
Stores sent to L1D: 22890146
Major fault: 0 Minor fault: 14010
Allocated PAGES: 56040

CPU 1 cumulative IPC: 1.14035 instructions: 200000000 cycles: 175384705
ITLB TOTAL     ACCESS:   33179986  HIT:   33179986  MISS:          0  HIT %:        100  MISS %:          0   MPKI: 0
ITLB LOAD TRANSLATION ACCESS:   33179986  HIT:   33179986  MISS:          0  HIT %:        100  MISS %:          0   MPKI: 0
ITLB PREFETCH  REQUESTED:          0  ISSUED:          0  USEFUL:          0  USELESS:          0
ITLB USEFUL LOAD PREFETCHES:          0 PREFETCH ISSUED TO LOWER LEVEL:          0  ACCURACY: -nan
ITLB TIMELY PREFETCHES:          0 LATE PREFETCHES: 0 DROPPED PREFETCHES: 0
ITLB PREFETCHES SAME FILL-ORIGIN LEVEL: 0 DIFFERENT FILL-ORIGIN LEVEL: 0
ITLB AVERAGE MISS LATENCY: -nan cycles
ITLB RQ	ACCESS:   33181856	FORWARD:          0	MERGED:          0	TO_CACHE:   33181856

DTLB TOTAL     ACCESS:   33846208  HIT:   33835031  MISS:      11177  HIT %:     99.967  MISS %:  0.0330229   MPKI: 0.055885
DTLB LOAD TRANSLATION ACCESS:   33846208  HIT:   33835031  MISS:      11177  HIT %:     99.967  MISS %:  0.0330229   MPKI: 0.055885
DTLB PREFETCH  REQUESTED:          0  ISSUED:          0  USEFUL:          0  USELESS:          0
DTLB USEFUL LOAD PREFETCHES:          0 PREFETCH ISSUED TO LOWER LEVEL:          0  ACCURACY: -nan
DTLB TIMELY PREFETCHES:          0 LATE PREFETCHES: 0 DROPPED PREFETCHES: 0
DTLB PREFETCHES SAME FILL-ORIGIN LEVEL: 0 DIFFERENT FILL-ORIGIN LEVEL: 0
DTLB AVERAGE MISS LATENCY: 135.244 cycles
DTLB RQ	ACCESS:   35386578	FORWARD:          0	MERGED:    1505269	TO_CACHE:   33881309

STLB TOTAL     ACCESS:   10783549  HIT:   10772372  MISS:      11177  HIT %:    99.8964  MISS %:   0.103649   MPKI: 0.055885
STLB LOAD TRANSLATION ACCESS:      11177  HIT:          0  MISS:      11177  HIT %:          0  MISS %:        100   MPKI: 0.055885
STLB TRANSLATION FROM L1D PREFETCHER ACCESS:   10772372  HIT:   10772372  MISS:          0  HIT %:        100  MISS %:          0   MPKI: 0
STLB PREFETCH  REQUESTED:          0  ISSUED:          0  USEFUL:          1  USELESS:          0
STLB USEFUL LOAD PREFETCHES:          1 PREFETCH ISSUED TO LOWER LEVEL:          0  ACCURACY: inf
STLB TIMELY PREFETCHES:          1 LATE PREFETCHES: 981 DROPPED PREFETCHES: 995496
STLB PREFETCHES SAME FILL-ORIGIN LEVEL: 0 DIFFERENT FILL-ORIGIN LEVEL: 0
STLB AVERAGE MISS LATENCY: 126.542 cycles
STLB RQ	ACCESS:   59720239	FORWARD:          0	MERGED:   47898499	TO_CACHE:   11821740

STLB Hit, L1D data hit: 0
STLB Hit, L2C data hit: 0
STLB Hit, LLC data hit: 0
STLB Hit, LLC data miss: 0
STLB STLB hints to L2: 0
L1D TOTAL     ACCESS:   77876627  HIT:   77161317  MISS:     715310  HIT %:    99.0815  MISS %:   0.918517   MPKI: 3.57655
L1D LOAD      ACCESS:   12469876  HIT:   12464173  MISS:       5703  HIT %:    99.9543  MISS %:  0.0457342   MPKI: 0.028515
L1D RFO       ACCESS:   12446944  HIT:   12089286  MISS:     357658  HIT %:    97.1265  MISS %:    2.87346   MPKI: 1.78829
L1D PREFETCH  ACCESS:   52959807  HIT:   52607858  MISS:     351949  HIT %:    99.3354  MISS %:   0.664559   MPKI: 1.75974
L1D PREFETCH  REQUESTED:  152821507  ISSUED:  152821507  USEFUL:     351975  USELESS:          0
L1D USEFUL LOAD PREFETCHES:     351975 PREFETCH ISSUED TO LOWER LEVEL:    2192234  ACCURACY: 16.0555
L1D TIMELY PREFETCHES:     351975 LATE PREFETCHES: 2788 DROPPED PREFETCHES: 2827362
L1D PREFETCHES SAME FILL-ORIGIN LEVEL: 354764 DIFFERENT FILL-ORIGIN LEVEL: 1837470
L1D AVERAGE MISS LATENCY: 200.639 cycles
L1D RQ	ACCESS:   42777046	FORWARD:          0	MERGED:   30281905	TO_CACHE:   12495141
L1D WQ	ACCESS:   22891437	FORWARD:          0	MERGED:          0	TO_CACHE:   22891437
L1D PQ	ACCESS:   93112449	FORWARD:          0	MERGED:   33403391	TO_CACHE:   59709058

L1D UNIQUE REGIONS ACCESSED: 0
L1D REGIONS CONFLICTS: 0
L1D Cross Page Prefetch Requests: 13467570
L1D Same Page Prefetch Requests: 125761420
L1D ROI Sum of L1D PQ occupancy: 807135770
L1D PREFETCHES PUSHED FROM L2C: 0
L1I TOTAL     ACCESS:   33179986  HIT:   33179986  MISS:          0  HIT %:        100  MISS %:          0   MPKI: 0
L1I LOAD      ACCESS:   33179986  HIT:   33179986  MISS:          0  HIT %:        100  MISS %:          0   MPKI: 0
L1I PREFETCH  REQUESTED:          0  ISSUED:          0  USEFUL:          0  USELESS:          0
L1I USEFUL LOAD PREFETCHES:          0 PREFETCH ISSUED TO LOWER LEVEL:          0  ACCURACY: -nan
L1I TIMELY PREFETCHES:          0 LATE PREFETCHES: 0 DROPPED PREFETCHES: 0
L1I PREFETCHES SAME FILL-ORIGIN LEVEL: 0 DIFFERENT FILL-ORIGIN LEVEL: 0
L1I AVERAGE MISS LATENCY: -nan cycles
L1I RQ	ACCESS:   55494760	FORWARD:          0	MERGED:   22312904	TO_CACHE:   33181856

BTB TOTAL     ACCESS:   45780289  HIT:   45780286  MISS:          3  HIT %:        100  MISS %: 6.55304e-06   MPKI: 1.5e-05
BTB BRANCH_DIRECT_JUMP	ACCESS:          0  HIT:          0  MISS:          0
BTB BRANCH_INDIRECT	ACCESS:          0  HIT:          0  MISS:          0
BTB BRANCH_CONDITIONAL	ACCESS:   45780289  HIT:   45780286  MISS:          3
BTB BRANCH_DIRECT_CALL	ACCESS:          0  HIT:          0  MISS:          0
BTB BRANCH_INDIRECT_CALL	ACCESS:          0  HIT:          0  MISS:          0
BTB BRANCH_RETURN	ACCESS:          0  HIT:          0  MISS:          0
BTB BRANCH_OTHER ACCESS:          0  HIT:          0  MISS:          0

L2C TOTAL     ACCESS:    3340359  HIT:    2455877  MISS:     884482  HIT %:    73.5213  MISS %:    26.4787   MPKI: 4.42241
L2C LOAD      ACCESS:       2915  HIT:          0  MISS:       2915  HIT %:          0  MISS %:        100   MPKI: 0.014575
L2C DATA LOAD MPKI: 0.014575
L2C INSTRUCTION LOAD MPKI: 0
L2C RFO       ACCESS:     357658  HIT:          0  MISS:     357658  HIT %:          0  MISS %:        100   MPKI: 1.78829
L2C PREFETCH  ACCESS:    1614474  HIT:    1259737  MISS:     354737  HIT %:    78.0277  MISS %:    21.9723   MPKI: 1.77368
L2C DATA PREFETCH MPKI: 1.77368
L2C INSTRUCTION PREFETCH MPKI: 0
L2C WRITEBACK ACCESS:     357658  HIT:     189905  MISS:     167753  HIT %:    53.0968  MISS %:    46.9032   MPKI: 0.838765
L2C LOAD TRANSLATION ACCESS:      11177  HIT:      10468  MISS:        709  HIT %:    93.6566  MISS %:    6.34338   MPKI: 0.003545
L2C TRANSLATION FROM L1D PREFETCHER ACCESS:     996477  HIT:     995767  MISS:        710  HIT %:    99.9287  MISS %:   0.071251   MPKI: 0.00355
L2C PREFETCH  REQUESTED:          0  ISSUED:          0  USEFUL:        710  USELESS:     354521
L2C USEFUL LOAD PREFETCHES:        710 PREFETCH ISSUED TO LOWER LEVEL:     354765  ACCURACY: 0.200132
L2C TIMELY PREFETCHES:        710 LATE PREFETCHES: 0 DROPPED PREFETCHES: 0
L2C PREFETCHES SAME FILL-ORIGIN LEVEL: 75161 DIFFERENT FILL-ORIGIN LEVEL: 0
L2C AVERAGE MISS LATENCY: 170.033 cycles
L2C RQ	ACCESS:    1368253	FORWARD:          0	MERGED:          0	TO_CACHE:    1368253
L2C WQ	ACCESS:     357679	FORWARD:          0	MERGED:          0	TO_CACHE:     357679
L2C PQ	ACCESS:    2192234	FORWARD:          0	MERGED:        375	TO_CACHE:    2191859

L2C Instructions Evicting Data 0
L2C Translations Evicting Data 1418
L2C Data Evicting Data 714068
L2C Instructions Evicting Instructions 0
L2C Translations Evicting Instructions 0
L2C Data Evicting Instructions 0
L2C Instructions Evicting Translations 0
L2C Translations Evicting Translations 3
L2C Data Evicting Translations 1291
L2C Dense regions hint from L2: 0
PSCL5 TOTAL     ACCESS:    1007654  HIT:    1007654  MISS:          0  HIT %:        100  MISS %:          0   MPKI: 0
PSCL5 LOAD TRANSLATION ACCESS:      11177  HIT:      11177  MISS:          0  HIT %:        100  MISS %:          0   MPKI: 0
PSCL5 TRANSLATION FROM L1D PREFETCHER ACCESS:     996477  HIT:     996477  MISS:          0  HIT %:        100  MISS %:          0   MPKI: 0
PSCL5 PREFETCH  REQUESTED:          0  ISSUED:          0  USEFUL:          0  USELESS:          0
PSCL5 USEFUL LOAD PREFETCHES:          0 PREFETCH ISSUED TO LOWER LEVEL:          0  ACCURACY: -nan
PSCL5 TIMELY PREFETCHES:          0 LATE PREFETCHES: 0 DROPPED PREFETCHES: 0
PSCL5 PREFETCHES SAME FILL-ORIGIN LEVEL: 0 DIFFERENT FILL-ORIGIN LEVEL: 0

PSCL4 TOTAL     ACCESS:    1007654  HIT:    1007654  MISS:          0  HIT %:        100  MISS %:          0   MPKI: 0
PSCL4 LOAD TRANSLATION ACCESS:      11177  HIT:      11177  MISS:          0  HIT %:        100  MISS %:          0   MPKI: 0
PSCL4 TRANSLATION FROM L1D PREFETCHER ACCESS:     996477  HIT:     996477  MISS:          0  HIT %:        100  MISS %:          0   MPKI: 0
PSCL4 PREFETCH  REQUESTED:          0  ISSUED:          0  USEFUL:          0  USELESS:          0
PSCL4 USEFUL LOAD PREFETCHES:          0 PREFETCH ISSUED TO LOWER LEVEL:          0  ACCURACY: -nan
PSCL4 TIMELY PREFETCHES:          0 LATE PREFETCHES: 0 DROPPED PREFETCHES: 0
PSCL4 PREFETCHES SAME FILL-ORIGIN LEVEL: 0 DIFFERENT FILL-ORIGIN LEVEL: 0

PSCL3 TOTAL     ACCESS:    1007654  HIT:    1007654  MISS:          0  HIT %:        100  MISS %:          0   MPKI: 0
PSCL3 LOAD TRANSLATION ACCESS:      11177  HIT:      11177  MISS:          0  HIT %:        100  MISS %:          0   MPKI: 0
PSCL3 TRANSLATION FROM L1D PREFETCHER ACCESS:     996477  HIT:     996477  MISS:          0  HIT %:        100  MISS %:          0   MPKI: 0
PSCL3 PREFETCH  REQUESTED:          0  ISSUED:          0  USEFUL:          0  USELESS:          0
PSCL3 USEFUL LOAD PREFETCHES:          0 PREFETCH ISSUED TO LOWER LEVEL:          0  ACCURACY: -nan
PSCL3 TIMELY PREFETCHES:          0 LATE PREFETCHES: 0 DROPPED PREFETCHES: 0
PSCL3 PREFETCHES SAME FILL-ORIGIN LEVEL: 0 DIFFERENT FILL-ORIGIN LEVEL: 0

PSCL2 TOTAL     ACCESS:    1005809  HIT:    1005787  MISS:         22  HIT %:    99.9978  MISS %: 0.00218729   MPKI: 0.00011
PSCL2 LOAD TRANSLATION ACCESS:      11177  HIT:      11155  MISS:         22  HIT %:    99.8032  MISS %:   0.196833   MPKI: 0.00011
PSCL2 TRANSLATION FROM L1D PREFETCHER ACCESS:     994632  HIT:     994632  MISS:          0  HIT %:        100  MISS %:          0   MPKI: 0
PSCL2 PREFETCH  REQUESTED:          0  ISSUED:          0  USEFUL:          0  USELESS:          0
PSCL2 USEFUL LOAD PREFETCHES:          0 PREFETCH ISSUED TO LOWER LEVEL:          0  ACCURACY: -nan
PSCL2 TIMELY PREFETCHES:          0 LATE PREFETCHES: 0 DROPPED PREFETCHES: 0
PSCL2 PREFETCHES SAME FILL-ORIGIN LEVEL: 0 DIFFERENT FILL-ORIGIN LEVEL: 0

LLC TOTAL     ACCESS:    1074644  HIT:     332484  MISS:     742160  HIT %:     30.939  MISS %:     69.061   MPKI: 3.7108
LLC LOAD      ACCESS:       2915  HIT:          0  MISS:       2915  HIT %:          0  MISS %:        100   MPKI: 0.014575
LLC RFO       ACCESS:     357658  HIT:          0  MISS:     357658  HIT %:          0  MISS %:        100   MPKI: 1.78829
LLC PREFETCH  ACCESS:     354737  HIT:          0  MISS:     354737  HIT %:          0  MISS %:        100   MPKI: 1.77368
LLC WRITEBACK ACCESS:     357915  HIT:     332484  MISS:      25431  HIT %:    92.8947  MISS %:    7.10532   MPKI: 0.127155
LLC LOAD TRANSLATION ACCESS:        709  HIT:          0  MISS:        709  HIT %:          0  MISS %:        100   MPKI: 0.003545
LLC TRANSLATION FROM L1D PREFETCHER ACCESS:        710  HIT:          0  MISS:        710  HIT %:          0  MISS %:        100   MPKI: 0.00355
LLC PREFETCH  REQUESTED:          0  ISSUED:          0  USEFUL:          0  USELESS:    1417981
LLC USEFUL LOAD PREFETCHES:          0 PREFETCH ISSUED TO LOWER LEVEL:    1419125  ACCURACY: 0
LLC TIMELY PREFETCHES:          0 LATE PREFETCHES: 0 DROPPED PREFETCHES: 0
LLC PREFETCHES SAME FILL-ORIGIN LEVEL: 0 DIFFERENT FILL-ORIGIN LEVEL: 0
LLC AVERAGE MISS LATENCY: 696.597 cycles
LLC RQ	ACCESS:    1448042	FORWARD:          0	MERGED:          0	TO_CACHE:    1448042
LLC WQ	ACCESS:    1432178	FORWARD:          0	MERGED:          0	TO_CACHE:    1432178
LLC PQ	ACCESS:    1419125	FORWARD:          0	MERGED:          0	TO_CACHE:    1419125

LLC Dense regions hint to LLC: 0

RAW hits: 0
Loads Generated: 42774634
Loads sent to L1D: 42774634
Stores Generated: 22890146
Stores sent to L1D: 22890147
Major fault: 0 Minor fault: 14010
Allocated PAGES: 56040

CPU 2 cumulative IPC: 1.14038 instructions: 200000001 cycles: 175380824
ITLB TOTAL     ACCESS:   33179989  HIT:   33179989  MISS:          0  HIT %:        100  MISS %:          0   MPKI: 0
ITLB LOAD TRANSLATION ACCESS:   33179989  HIT:   33179989  MISS:          0  HIT %:        100  MISS %:          0   MPKI: 0
ITLB PREFETCH  REQUESTED:          0  ISSUED:          0  USEFUL:          0  USELESS:          0
ITLB USEFUL LOAD PREFETCHES:          0 PREFETCH ISSUED TO LOWER LEVEL:          0  ACCURACY: -nan
ITLB TIMELY PREFETCHES:          0 LATE PREFETCHES: 0 DROPPED PREFETCHES: 0
ITLB PREFETCHES SAME FILL-ORIGIN LEVEL: 0 DIFFERENT FILL-ORIGIN LEVEL: 0
ITLB AVERAGE MISS LATENCY: -nan cycles
ITLB RQ	ACCESS:   33182446	FORWARD:          0	MERGED:          0	TO_CACHE:   33182446

DTLB TOTAL     ACCESS:   33845628  HIT:   33834451  MISS:      11177  HIT %:     99.967  MISS %:  0.0330235   MPKI: 0.055885
DTLB LOAD TRANSLATION ACCESS:   33845628  HIT:   33834451  MISS:      11177  HIT %:     99.967  MISS %:  0.0330235   MPKI: 0.055885
DTLB PREFETCH  REQUESTED:          0  ISSUED:          0  USEFUL:          0  USELESS:          0
DTLB USEFUL LOAD PREFETCHES:          0 PREFETCH ISSUED TO LOWER LEVEL:          0  ACCURACY: -nan
DTLB TIMELY PREFETCHES:          0 LATE PREFETCHES: 0 DROPPED PREFETCHES: 0
DTLB PREFETCHES SAME FILL-ORIGIN LEVEL: 0 DIFFERENT FILL-ORIGIN LEVEL: 0
DTLB AVERAGE MISS LATENCY: 135.869 cycles
DTLB RQ	ACCESS:   35386866	FORWARD:          0	MERGED:    1505224	TO_CACHE:   33881642

STLB TOTAL     ACCESS:   10475697  HIT:   10464520  MISS:      11177  HIT %:    99.8933  MISS %:   0.106695   MPKI: 0.055885
STLB LOAD TRANSLATION ACCESS:      11177  HIT:          0  MISS:      11177  HIT %:          0  MISS %:        100   MPKI: 0.055885
STLB TRANSLATION FROM L1D PREFETCHER ACCESS:   10464520  HIT:   10464520  MISS:          0  HIT %:        100  MISS %:          0   MPKI: 0
STLB PREFETCH  REQUESTED:          0  ISSUED:          0  USEFUL:          3  USELESS:          0
STLB USEFUL LOAD PREFETCHES:          3 PREFETCH ISSUED TO LOWER LEVEL:          0  ACCURACY: inf
STLB TIMELY PREFETCHES:          3 LATE PREFETCHES: 1007 DROPPED PREFETCHES: 1395578
STLB PREFETCHES SAME FILL-ORIGIN LEVEL: 0 DIFFERENT FILL-ORIGIN LEVEL: 0
STLB AVERAGE MISS LATENCY: 127.142 cycles
STLB RQ	ACCESS:   58672857	FORWARD:          0	MERGED:   46749035	TO_CACHE:   11923822

STLB Hit, L1D data hit: 0
STLB Hit, L2C data hit: 0
STLB Hit, LLC data hit: 0
STLB Hit, LLC data miss: 0
STLB STLB hints to L2: 0
L1D TOTAL     ACCESS:   76526122  HIT:   75810807  MISS:     715315  HIT %:    99.0653  MISS %:   0.934733   MPKI: 3.57657
L1D LOAD      ACCESS:   12469967  HIT:   12464306  MISS:       5661  HIT %:    99.9546  MISS %:  0.0453971   MPKI: 0.028305
L1D RFO       ACCESS:   12471510  HIT:   12113852  MISS:     357658  HIT %:    97.1322  MISS %:     2.8678   MPKI: 1.78829
L1D PREFETCH  ACCESS:   51584645  HIT:   51232649  MISS:     351996  HIT %:    99.3176  MISS %:   0.682366   MPKI: 1.75998
L1D PREFETCH  REQUESTED:  152201589  ISSUED:  152201589  USEFUL:     352023  USELESS:          0
L1D USEFUL LOAD PREFETCHES:     352023 PREFETCH ISSUED TO LOWER LEVEL:    2133592  ACCURACY: 16.4991
L1D TIMELY PREFETCHES:     352023 LATE PREFETCHES: 2785 DROPPED PREFETCHES: 3222674
L1D PREFETCHES SAME FILL-ORIGIN LEVEL: 354815 DIFFERENT FILL-ORIGIN LEVEL: 1778777
L1D AVERAGE MISS LATENCY: 200.699 cycles
L1D RQ	ACCESS:   42777802	FORWARD:          0	MERGED:   30282778	TO_CACHE:   12495024
L1D WQ	ACCESS:   22891842	FORWARD:          0	MERGED:          0	TO_CACHE:   22891842
L1D PQ	ACCESS:   93539913	FORWARD:          0	MERGED:   34878237	TO_CACHE:   58661676

L1D UNIQUE REGIONS ACCESSED: 0
L1D REGIONS CONFLICTS: 0
L1D Cross Page Prefetch Requests: 13941800
L1D Same Page Prefetch Requests: 125543264
L1D ROI Sum of L1D PQ occupancy: 838440374
L1D PREFETCHES PUSHED FROM L2C: 0
L1I TOTAL     ACCESS:   33179988  HIT:   33179988  MISS:          0  HIT %:        100  MISS %:          0   MPKI: 0
L1I LOAD      ACCESS:   33179988  HIT:   33179988  MISS:          0  HIT %:        100  MISS %:          0   MPKI: 0
L1I PREFETCH  REQUESTED:          0  ISSUED:          0  USEFUL:          0  USELESS:          0
L1I USEFUL LOAD PREFETCHES:          0 PREFETCH ISSUED TO LOWER LEVEL:          0  ACCURACY: -nan
L1I TIMELY PREFETCHES:          0 LATE PREFETCHES: 0 DROPPED PREFETCHES: 0
L1I PREFETCHES SAME FILL-ORIGIN LEVEL: 0 DIFFERENT FILL-ORIGIN LEVEL: 0
L1I AVERAGE MISS LATENCY: -nan cycles
L1I RQ	ACCESS:   55495973	FORWARD:          0	MERGED:   22313527	TO_CACHE:   33182446

BTB TOTAL     ACCESS:   45780287  HIT:   45780283  MISS:          4  HIT %:        100  MISS %: 8.73739e-06   MPKI: 2e-05
BTB BRANCH_DIRECT_JUMP	ACCESS:          0  HIT:          0  MISS:          0
BTB BRANCH_INDIRECT	ACCESS:          0  HIT:          0  MISS:          0
BTB BRANCH_CONDITIONAL	ACCESS:   45780287  HIT:   45780283  MISS:          4
BTB BRANCH_DIRECT_CALL	ACCESS:          0  HIT:          0  MISS:          0
BTB BRANCH_INDIRECT_CALL	ACCESS:          0  HIT:          0  MISS:          0
BTB BRANCH_RETURN	ACCESS:          0  HIT:          0  MISS:          0
BTB BRANCH_OTHER ACCESS:          0  HIT:          0  MISS:          0

L2C TOTAL     ACCESS:    3689128  HIT:    2810307  MISS:     878821  HIT %:    76.1781  MISS %:    23.8219   MPKI: 4.3941
L2C LOAD      ACCESS:       2876  HIT:          0  MISS:       2876  HIT %:          0  MISS %:        100   MPKI: 0.01438
L2C DATA LOAD MPKI: 0.01438
L2C INSTRUCTION LOAD MPKI: 0
L2C RFO       ACCESS:     357658  HIT:          0  MISS:     357658  HIT %:          0  MISS %:        100   MPKI: 1.78829
L2C PREFETCH  ACCESS:    1563174  HIT:    1208398  MISS:     354776  HIT %:    77.3041  MISS %:    22.6959   MPKI: 1.77388
L2C DATA PREFETCH MPKI: 1.77388
L2C INSTRUCTION PREFETCH MPKI: 0
L2C WRITEBACK ACCESS:     357658  HIT:     195567  MISS:     162091  HIT %:    54.6799  MISS %:    45.3201   MPKI: 0.810455
L2C LOAD TRANSLATION ACCESS:      11177  HIT:      10467  MISS:        710  HIT %:    93.6477  MISS %:    6.35233   MPKI: 0.00355
L2C TRANSLATION FROM L1D PREFETCHER ACCESS:    1396585  HIT:    1395875  MISS:        710  HIT %:    99.9492  MISS %:  0.0508383   MPKI: 0.00355
L2C PREFETCH  REQUESTED:          0  ISSUED:          0  USEFUL:        711  USELESS:     355588
L2C USEFUL LOAD PREFETCHES:        711 PREFETCH ISSUED TO LOWER LEVEL:     354828  ACCURACY: 0.200379
L2C TIMELY PREFETCHES:        711 LATE PREFETCHES: 0 DROPPED PREFETCHES: 0
L2C PREFETCHES SAME FILL-ORIGIN LEVEL: 74735 DIFFERENT FILL-ORIGIN LEVEL: 0
L2C AVERAGE MISS LATENCY: 171.035 cycles
L2C RQ	ACCESS:    1768330	FORWARD:          0	MERGED:          0	TO_CACHE:    1768330
L2C WQ	ACCESS:     357680	FORWARD:          0	MERGED:          0	TO_CACHE:     357680
L2C PQ	ACCESS:    2133592	FORWARD:          0	MERGED:        322	TO_CACHE:    2133270

L2C Instructions Evicting Data 0
L2C Translations Evicting Data 1419
L2C Data Evicting Data 714134
L2C Instructions Evicting Instructions 0
L2C Translations Evicting Instructions 0
L2C Data Evicting Instructions 0
L2C Instructions Evicting Translations 0
L2C Translations Evicting Translations 4
L2C Data Evicting Translations 1256
L2C Dense regions hint from L2: 0
PSCL5 TOTAL     ACCESS:    1407762  HIT:    1407762  MISS:          0  HIT %:        100  MISS %:          0   MPKI: 0
PSCL5 LOAD TRANSLATION ACCESS:      11177  HIT:      11177  MISS:          0  HIT %:        100  MISS %:          0   MPKI: 0
PSCL5 TRANSLATION FROM L1D PREFETCHER ACCESS:    1396585  HIT:    1396585  MISS:          0  HIT %:        100  MISS %:          0   MPKI: 0
PSCL5 PREFETCH  REQUESTED:          0  ISSUED:          0  USEFUL:          0  USELESS:          0
PSCL5 USEFUL LOAD PREFETCHES:          0 PREFETCH ISSUED TO LOWER LEVEL:          0  ACCURACY: -nan
PSCL5 TIMELY PREFETCHES:          0 LATE PREFETCHES: 0 DROPPED PREFETCHES: 0
PSCL5 PREFETCHES SAME FILL-ORIGIN LEVEL: 0 DIFFERENT FILL-ORIGIN LEVEL: 0

PSCL4 TOTAL     ACCESS:    1407762  HIT:    1407762  MISS:          0  HIT %:        100  MISS %:          0   MPKI: 0
PSCL4 LOAD TRANSLATION ACCESS:      11177  HIT:      11177  MISS:          0  HIT %:        100  MISS %:          0   MPKI: 0
PSCL4 TRANSLATION FROM L1D PREFETCHER ACCESS:    1396585  HIT:    1396585  MISS:          0  HIT %:        100  MISS %:          0   MPKI: 0
PSCL4 PREFETCH  REQUESTED:          0  ISSUED:          0  USEFUL:          0  USELESS:          0
PSCL4 USEFUL LOAD PREFETCHES:          0 PREFETCH ISSUED TO LOWER LEVEL:          0  ACCURACY: -nan
PSCL4 TIMELY PREFETCHES:          0 LATE PREFETCHES: 0 DROPPED PREFETCHES: 0
PSCL4 PREFETCHES SAME FILL-ORIGIN LEVEL: 0 DIFFERENT FILL-ORIGIN LEVEL: 0

PSCL3 TOTAL     ACCESS:    1407762  HIT:    1407762  MISS:          0  HIT %:        100  MISS %:          0   MPKI: 0
PSCL3 LOAD TRANSLATION ACCESS:      11177  HIT:      11177  MISS:          0  HIT %:        100  MISS %:          0   MPKI: 0
PSCL3 TRANSLATION FROM L1D PREFETCHER ACCESS:    1396585  HIT:    1396585  MISS:          0  HIT %:        100  MISS %:          0   MPKI: 0
PSCL3 PREFETCH  REQUESTED:          0  ISSUED:          0  USEFUL:          0  USELESS:          0
PSCL3 USEFUL LOAD PREFETCHES:          0 PREFETCH ISSUED TO LOWER LEVEL:          0  ACCURACY: -nan
PSCL3 TIMELY PREFETCHES:          0 LATE PREFETCHES: 0 DROPPED PREFETCHES: 0
PSCL3 PREFETCHES SAME FILL-ORIGIN LEVEL: 0 DIFFERENT FILL-ORIGIN LEVEL: 0

PSCL2 TOTAL     ACCESS:    1397331  HIT:    1397309  MISS:         22  HIT %:    99.9984  MISS %: 0.00157443   MPKI: 0.00011
PSCL2 LOAD TRANSLATION ACCESS:      11177  HIT:      11155  MISS:         22  HIT %:    99.8032  MISS %:   0.196833   MPKI: 0.00011
PSCL2 TRANSLATION FROM L1D PREFETCHER ACCESS:    1386154  HIT:    1386154  MISS:          0  HIT %:        100  MISS %:          0   MPKI: 0
PSCL2 PREFETCH  REQUESTED:          0  ISSUED:          0  USEFUL:          0  USELESS:          0
PSCL2 USEFUL LOAD PREFETCHES:          0 PREFETCH ISSUED TO LOWER LEVEL:          0  ACCURACY: -nan
PSCL2 TIMELY PREFETCHES:          0 LATE PREFETCHES: 0 DROPPED PREFETCHES: 0
PSCL2 PREFETCHES SAME FILL-ORIGIN LEVEL: 0 DIFFERENT FILL-ORIGIN LEVEL: 0

LLC TOTAL     ACCESS:    1073658  HIT:     330147  MISS:     743511  HIT %:    30.7497  MISS %:    69.2503   MPKI: 3.71755
LLC LOAD      ACCESS:       2876  HIT:          0  MISS:       2876  HIT %:          0  MISS %:        100   MPKI: 0.01438
LLC RFO       ACCESS:     357658  HIT:          0  MISS:     357658  HIT %:          0  MISS %:        100   MPKI: 1.78829
LLC PREFETCH  ACCESS:     354776  HIT:          0  MISS:     354776  HIT %:          0  MISS %:        100   MPKI: 1.77388
LLC WRITEBACK ACCESS:     356928  HIT:     330146  MISS:      26782  HIT %:    92.4965  MISS %:    7.50347   MPKI: 0.13391
LLC LOAD TRANSLATION ACCESS:        710  HIT:          1  MISS:        709  HIT %:   0.140845  MISS %:    99.8592   MPKI: 0.003545
LLC TRANSLATION FROM L1D PREFETCHER ACCESS:        710  HIT:          0  MISS:        710  HIT %:          0  MISS %:        100   MPKI: 0.00355
LLC PREFETCH  REQUESTED:          0  ISSUED:          0  USEFUL:          0  USELESS:    1417981
LLC USEFUL LOAD PREFETCHES:          0 PREFETCH ISSUED TO LOWER LEVEL:    1419125  ACCURACY: 0
LLC TIMELY PREFETCHES:          0 LATE PREFETCHES: 0 DROPPED PREFETCHES: 0
LLC PREFETCHES SAME FILL-ORIGIN LEVEL: 0 DIFFERENT FILL-ORIGIN LEVEL: 0
LLC AVERAGE MISS LATENCY: 695.332 cycles
LLC RQ	ACCESS:    1448042	FORWARD:          0	MERGED:          0	TO_CACHE:    1448042
LLC WQ	ACCESS:    1432178	FORWARD:          0	MERGED:          0	TO_CACHE:    1432178
LLC PQ	ACCESS:    1419125	FORWARD:          0	MERGED:          0	TO_CACHE:    1419125

LLC Dense regions hint to LLC: 0

RAW hits: 0
Loads Generated: 42774634
Loads sent to L1D: 42774632
Stores Generated: 22890147
Stores sent to L1D: 22890147
Major fault: 0 Minor fault: 14010
Allocated PAGES: 56040

CPU 3 cumulative IPC: 1.14028 instructions: 200000001 cycles: 175394975
ITLB TOTAL     ACCESS:   33180041  HIT:   33180041  MISS:          0  HIT %:        100  MISS %:          0   MPKI: 0
ITLB LOAD TRANSLATION ACCESS:   33180041  HIT:   33180041  MISS:          0  HIT %:        100  MISS %:          0   MPKI: 0
ITLB PREFETCH  REQUESTED:          0  ISSUED:          0  USEFUL:          0  USELESS:          0
ITLB USEFUL LOAD PREFETCHES:          0 PREFETCH ISSUED TO LOWER LEVEL:          0  ACCURACY: -nan
ITLB TIMELY PREFETCHES:          0 LATE PREFETCHES: 0 DROPPED PREFETCHES: 0
ITLB PREFETCHES SAME FILL-ORIGIN LEVEL: 0 DIFFERENT FILL-ORIGIN LEVEL: 0
ITLB AVERAGE MISS LATENCY: -nan cycles
ITLB RQ	ACCESS:   33180041	FORWARD:          0	MERGED:          0	TO_CACHE:   33180041

DTLB TOTAL     ACCESS:   33846350  HIT:   33835173  MISS:      11177  HIT %:     99.967  MISS %:  0.0330228   MPKI: 0.055885
DTLB LOAD TRANSLATION ACCESS:   33846350  HIT:   33835173  MISS:      11177  HIT %:     99.967  MISS %:  0.0330228   MPKI: 0.055885
DTLB PREFETCH  REQUESTED:          0  ISSUED:          0  USEFUL:          0  USELESS:          0
DTLB USEFUL LOAD PREFETCHES:          0 PREFETCH ISSUED TO LOWER LEVEL:          0  ACCURACY: -nan
DTLB TIMELY PREFETCHES:          0 LATE PREFETCHES: 0 DROPPED PREFETCHES: 0
DTLB PREFETCHES SAME FILL-ORIGIN LEVEL: 0 DIFFERENT FILL-ORIGIN LEVEL: 0
DTLB AVERAGE MISS LATENCY: 135.432 cycles
DTLB RQ	ACCESS:   35384831	FORWARD:          0	MERGED:    1504937	TO_CACHE:   33879894

STLB TOTAL     ACCESS:   10783555  HIT:   10772378  MISS:      11177  HIT %:    99.8964  MISS %:   0.103649   MPKI: 0.055885
STLB LOAD TRANSLATION ACCESS:      11177  HIT:          0  MISS:      11177  HIT %:          0  MISS %:        100   MPKI: 0.055885
STLB TRANSLATION FROM L1D PREFETCHER ACCESS:   10772378  HIT:   10772378  MISS:          0  HIT %:        100  MISS %:          0   MPKI: 0
STLB PREFETCH  REQUESTED:          0  ISSUED:          0  USEFUL:          0  USELESS:          0
STLB USEFUL LOAD PREFETCHES:          0 PREFETCH ISSUED TO LOWER LEVEL:          0  ACCURACY: -nan
STLB TIMELY PREFETCHES:          0 LATE PREFETCHES: 979 DROPPED PREFETCHES: 993254
STLB PREFETCHES SAME FILL-ORIGIN LEVEL: 0 DIFFERENT FILL-ORIGIN LEVEL: 0
STLB AVERAGE MISS LATENCY: 126.71 cycles
STLB RQ	ACCESS:   59709120	FORWARD:          0	MERGED:   47890396	TO_CACHE:   11818724

STLB Hit, L1D data hit: 0
STLB Hit, L2C data hit: 0
STLB Hit, LLC data hit: 0
STLB Hit, LLC data miss: 0
STLB STLB hints to L2: 0
L1D TOTAL     ACCESS:   77873177  HIT:   77157864  MISS:     715313  HIT %:    99.0814  MISS %:   0.918561   MPKI: 3.57656
L1D LOAD      ACCESS:   12470232  HIT:   12464561  MISS:       5671  HIT %:    99.9545  MISS %:  0.0454763   MPKI: 0.028355
L1D RFO       ACCESS:   12447557  HIT:   12089900  MISS:     357657  HIT %:    97.1267  MISS %:    2.87331   MPKI: 1.78828
L1D PREFETCH  ACCESS:   52955388  HIT:   52603403  MISS:     351985  HIT %:    99.3353  MISS %:   0.664682   MPKI: 1.75992
L1D PREFETCH  REQUESTED:  152790237  ISSUED:  152790237  USEFUL:     351987  USELESS:          0
L1D USEFUL LOAD PREFETCHES:     351987 PREFETCH ISSUED TO LOWER LEVEL:    2184168  ACCURACY: 16.1154
L1D TIMELY PREFETCHES:     351987 LATE PREFETCHES: 2756 DROPPED PREFETCHES: 2822916
L1D PREFETCHES SAME FILL-ORIGIN LEVEL: 354743 DIFFERENT FILL-ORIGIN LEVEL: 1829425
L1D AVERAGE MISS LATENCY: 201.044 cycles
L1D RQ	ACCESS:   42774634	FORWARD:          0	MERGED:   30279949	TO_CACHE:   12494685
L1D WQ	ACCESS:   22890146	FORWARD:          0	MERGED:          0	TO_CACHE:   22890146
L1D PQ	ACCESS:   93092295	FORWARD:          0	MERGED:   33394353	TO_CACHE:   59697942

L1D UNIQUE REGIONS ACCESSED: 0
L1D REGIONS CONFLICTS: 0
L1D Cross Page Prefetch Requests: 14889484
L1D Same Page Prefetch Requests: 125365606
L1D ROI Sum of L1D PQ occupancy: 806949263
L1D PREFETCHES PUSHED FROM L2C: 0
L1I TOTAL     ACCESS:   33180040  HIT:   33180040  MISS:          0  HIT %:        100  MISS %:          0   MPKI: 0
L1I LOAD      ACCESS:   33180040  HIT:   33180040  MISS:          0  HIT %:        100  MISS %:          0   MPKI: 0
L1I PREFETCH  REQUESTED:          0  ISSUED:          0  USEFUL:          0  USELESS:          0
L1I USEFUL LOAD PREFETCHES:          0 PREFETCH ISSUED TO LOWER LEVEL:          0  ACCURACY: -nan
L1I TIMELY PREFETCHES:          0 LATE PREFETCHES: 0 DROPPED PREFETCHES: 0
L1I PREFETCHES SAME FILL-ORIGIN LEVEL: 0 DIFFERENT FILL-ORIGIN LEVEL: 0
L1I AVERAGE MISS LATENCY: -nan cycles
L1I RQ	ACCESS:   55491804	FORWARD:          0	MERGED:   22311763	TO_CACHE:   33180041

BTB TOTAL     ACCESS:   45780290  HIT:   45780286  MISS:          4  HIT %:        100  MISS %: 8.73738e-06   MPKI: 2e-05
BTB BRANCH_DIRECT_JUMP	ACCESS:          0  HIT:          0  MISS:          0
BTB BRANCH_INDIRECT	ACCESS:          0  HIT:          0  MISS:          0
BTB BRANCH_CONDITIONAL	ACCESS:   45780290  HIT:   45780286  MISS:          4
BTB BRANCH_DIRECT_CALL	ACCESS:          0  HIT:          0  MISS:          0
BTB BRANCH_INDIRECT_CALL	ACCESS:          0  HIT:          0  MISS:          0
BTB BRANCH_RETURN	ACCESS:          0  HIT:          0  MISS:          0
BTB BRANCH_OTHER ACCESS:          0  HIT:          0  MISS:          0

L2C TOTAL     ACCESS:    3336037  HIT:    2452361  MISS:     883676  HIT %:    73.5112  MISS %:    26.4888   MPKI: 4.41838
L2C LOAD      ACCESS:       2915  HIT:          0  MISS:       2915  HIT %:          0  MISS %:        100   MPKI: 0.014575
L2C DATA LOAD MPKI: 0.014575
L2C INSTRUCTION LOAD MPKI: 0
L2C RFO       ACCESS:     357657  HIT:          0  MISS:     357657  HIT %:          0  MISS %:        100   MPKI: 1.78828
L2C PREFETCH  ACCESS:    1612398  HIT:    1257662  MISS:     354736  HIT %:    77.9995  MISS %:    22.0005   MPKI: 1.77368
L2C DATA PREFETCH MPKI: 1.77368
L2C INSTRUCTION PREFETCH MPKI: 0
L2C WRITEBACK ACCESS:     357657  HIT:     190708  MISS:     166949  HIT %:    53.3215  MISS %:    46.6785   MPKI: 0.834745
L2C LOAD TRANSLATION ACCESS:      11177  HIT:      10468  MISS:        709  HIT %:    93.6566  MISS %:    6.34338   MPKI: 0.003545
L2C TRANSLATION FROM L1D PREFETCHER ACCESS:     994233  HIT:     993523  MISS:        710  HIT %:    99.9286  MISS %:  0.0714118   MPKI: 0.00355
L2C PREFETCH  REQUESTED:          0  ISSUED:          0  USEFUL:        710  USELESS:     353708
L2C USEFUL LOAD PREFETCHES:        710 PREFETCH ISSUED TO LOWER LEVEL:     354738  ACCURACY: 0.200148
L2C TIMELY PREFETCHES:        710 LATE PREFETCHES: 0 DROPPED PREFETCHES: 0
L2C PREFETCHES SAME FILL-ORIGIN LEVEL: 74814 DIFFERENT FILL-ORIGIN LEVEL: 0
L2C AVERAGE MISS LATENCY: 170.349 cycles
L2C RQ	ACCESS:    1365983	FORWARD:          0	MERGED:          0	TO_CACHE:    1365983
L2C WQ	ACCESS:     357657	FORWARD:          0	MERGED:          0	TO_CACHE:     357657
L2C PQ	ACCESS:    2184168	FORWARD:          0	MERGED:        360	TO_CACHE:    2183808

L2C Instructions Evicting Data 0
L2C Translations Evicting Data 1419
L2C Data Evicting Data 714010
L2C Instructions Evicting Instructions 0
L2C Translations Evicting Instructions 0
L2C Data Evicting Instructions 0
L2C Instructions Evicting Translations 0
L2C Translations Evicting Translations 0
L2C Data Evicting Translations 1298
L2C Dense regions hint from L2: 0
PSCL5 TOTAL     ACCESS:    1005410  HIT:    1005410  MISS:          0  HIT %:        100  MISS %:          0   MPKI: 0
PSCL5 LOAD TRANSLATION ACCESS:      11177  HIT:      11177  MISS:          0  HIT %:        100  MISS %:          0   MPKI: 0
PSCL5 TRANSLATION FROM L1D PREFETCHER ACCESS:     994233  HIT:     994233  MISS:          0  HIT %:        100  MISS %:          0   MPKI: 0
PSCL5 PREFETCH  REQUESTED:          0  ISSUED:          0  USEFUL:          0  USELESS:          0
PSCL5 USEFUL LOAD PREFETCHES:          0 PREFETCH ISSUED TO LOWER LEVEL:          0  ACCURACY: -nan
PSCL5 TIMELY PREFETCHES:          0 LATE PREFETCHES: 0 DROPPED PREFETCHES: 0
PSCL5 PREFETCHES SAME FILL-ORIGIN LEVEL: 0 DIFFERENT FILL-ORIGIN LEVEL: 0

PSCL4 TOTAL     ACCESS:    1005410  HIT:    1005410  MISS:          0  HIT %:        100  MISS %:          0   MPKI: 0
PSCL4 LOAD TRANSLATION ACCESS:      11177  HIT:      11177  MISS:          0  HIT %:        100  MISS %:          0   MPKI: 0
PSCL4 TRANSLATION FROM L1D PREFETCHER ACCESS:     994233  HIT:     994233  MISS:          0  HIT %:        100  MISS %:          0   MPKI: 0
PSCL4 PREFETCH  REQUESTED:          0  ISSUED:          0  USEFUL:          0  USELESS:          0
PSCL4 USEFUL LOAD PREFETCHES:          0 PREFETCH ISSUED TO LOWER LEVEL:          0  ACCURACY: -nan
PSCL4 TIMELY PREFETCHES:          0 LATE PREFETCHES: 0 DROPPED PREFETCHES: 0
PSCL4 PREFETCHES SAME FILL-ORIGIN LEVEL: 0 DIFFERENT FILL-ORIGIN LEVEL: 0

PSCL3 TOTAL     ACCESS:    1005410  HIT:    1005410  MISS:          0  HIT %:        100  MISS %:          0   MPKI: 0
PSCL3 LOAD TRANSLATION ACCESS:      11177  HIT:      11177  MISS:          0  HIT %:        100  MISS %:          0   MPKI: 0
PSCL3 TRANSLATION FROM L1D PREFETCHER ACCESS:     994233  HIT:     994233  MISS:          0  HIT %:        100  MISS %:          0   MPKI: 0
PSCL3 PREFETCH  REQUESTED:          0  ISSUED:          0  USEFUL:          0  USELESS:          0
PSCL3 USEFUL LOAD PREFETCHES:          0 PREFETCH ISSUED TO LOWER LEVEL:          0  ACCURACY: -nan
PSCL3 TIMELY PREFETCHES:          0 LATE PREFETCHES: 0 DROPPED PREFETCHES: 0
PSCL3 PREFETCHES SAME FILL-ORIGIN LEVEL: 0 DIFFERENT FILL-ORIGIN LEVEL: 0

PSCL2 TOTAL     ACCESS:    1003397  HIT:    1003375  MISS:         22  HIT %:    99.9978  MISS %: 0.00219255   MPKI: 0.00011
PSCL2 LOAD TRANSLATION ACCESS:      11177  HIT:      11155  MISS:         22  HIT %:    99.8032  MISS %:   0.196833   MPKI: 0.00011
PSCL2 TRANSLATION FROM L1D PREFETCHER ACCESS:     992220  HIT:     992220  MISS:          0  HIT %:        100  MISS %:          0   MPKI: 0
PSCL2 PREFETCH  REQUESTED:          0  ISSUED:          0  USEFUL:          0  USELESS:          0
PSCL2 USEFUL LOAD PREFETCHES:          0 PREFETCH ISSUED TO LOWER LEVEL:          0  ACCURACY: -nan
PSCL2 TIMELY PREFETCHES:          0 LATE PREFETCHES: 0 DROPPED PREFETCHES: 0
PSCL2 PREFETCHES SAME FILL-ORIGIN LEVEL: 0 DIFFERENT FILL-ORIGIN LEVEL: 0

LLC TOTAL     ACCESS:    1075423  HIT:     330638  MISS:     744785  HIT %:    30.7449  MISS %:    69.2551   MPKI: 3.72392
LLC LOAD      ACCESS:       2915  HIT:          0  MISS:       2915  HIT %:          0  MISS %:        100   MPKI: 0.014575
LLC RFO       ACCESS:     357657  HIT:          0  MISS:     357657  HIT %:          0  MISS %:        100   MPKI: 1.78828
LLC PREFETCH  ACCESS:     354736  HIT:          0  MISS:     354736  HIT %:          0  MISS %:        100   MPKI: 1.77368
LLC WRITEBACK ACCESS:     358696  HIT:     330638  MISS:      28058  HIT %:    92.1778  MISS %:    7.82222   MPKI: 0.14029
LLC LOAD TRANSLATION ACCESS:        709  HIT:          0  MISS:        709  HIT %:          0  MISS %:        100   MPKI: 0.003545
LLC TRANSLATION FROM L1D PREFETCHER ACCESS:        710  HIT:          0  MISS:        710  HIT %:          0  MISS %:        100   MPKI: 0.00355
LLC PREFETCH  REQUESTED:          0  ISSUED:          0  USEFUL:          0  USELESS:    1417981
LLC USEFUL LOAD PREFETCHES:          0 PREFETCH ISSUED TO LOWER LEVEL:    1419125  ACCURACY: 0
LLC TIMELY PREFETCHES:          0 LATE PREFETCHES: 0 DROPPED PREFETCHES: 0
LLC PREFETCHES SAME FILL-ORIGIN LEVEL: 0 DIFFERENT FILL-ORIGIN LEVEL: 0
LLC AVERAGE MISS LATENCY: 694.142 cycles
LLC RQ	ACCESS:    1448042	FORWARD:          0	MERGED:          0	TO_CACHE:    1448042
LLC WQ	ACCESS:    1432178	FORWARD:          0	MERGED:          0	TO_CACHE:    1432178
LLC PQ	ACCESS:    1419125	FORWARD:          0	MERGED:          0	TO_CACHE:    1419125

LLC Dense regions hint to LLC: 0

RAW hits: 0
Loads Generated: 42774634
Loads sent to L1D: 42774634
Stores Generated: 22890147
Stores sent to L1D: 22890146
Major fault: 0 Minor fault: 14010
Allocated PAGES: 56040

DRAM Statistics
 CHANNEL 0
 RQ ROW_BUFFER_HIT:     916353  ROW_BUFFER_MISS:    1950807
 DBUS_CONGESTED:       1720
 WQ ROW_BUFFER_HIT:     654412  ROW_BUFFER_MISS:     780006  FULL:        699

 AVG_CONGESTED_CYCLE: 5
 All warmup complete: 5
Channel 0 Bank busy for read cycles: 0
Channel 0 Bank busy for write cycles: 0
Channel 0
Rank 0
0banks busy for read cycles: 423587
0banks busy for write cycles: 602
1banks busy for read cycles: 32524762
1banks busy for write cycles: 388765
2banks busy for read cycles: 39393643
2banks busy for write cycles: 410990
3banks busy for read cycles: 30988224
3banks busy for write cycles: 440312
4banks busy for read cycles: 17162293
4banks busy for write cycles: 466824
5banks busy for read cycles: 6729425
5banks busy for write cycles: 516268
6banks busy for read cycles: 2005575
6banks busy for write cycles: 642960
7banks busy for read cycles: 705108
7banks busy for write cycles: 2631385
8banks busy for read cycles: 2164207
8banks busy for write cycles: 37800046

CPU 0 Branch Prediction Accuracy: 99.4144% MPKI: 1.34037 Average ROB Occupancy at Mispredict: 32.938
Branch types
NOT_BRANCH: 154240270 77.1099%
BRANCH_DIRECT_JUMP: 0 0%
BRANCH_INDIRECT: 0 0%
BRANCH_CONDITIONAL: 45786395 22.8901%
BRANCH_DIRECT_CALL: 0 0%
BRANCH_INDIRECT_CALL: 0 0%
BRANCH_RETURN: 0 0%
BRANCH_OTHER: 0 0%


CPU 1 Branch Prediction Accuracy: 99.4144% MPKI: 1.34036 Average ROB Occupancy at Mispredict: 32.9134
Branch types
NOT_BRANCH: 154228419 77.1099%
BRANCH_DIRECT_JUMP: 0 0%
BRANCH_INDIRECT: 0 0%
BRANCH_CONDITIONAL: 45782878 22.8901%
BRANCH_DIRECT_CALL: 0 0%
BRANCH_INDIRECT_CALL: 0 0%
BRANCH_RETURN: 0 0%
BRANCH_OTHER: 0 0%


CPU 2 Branch Prediction Accuracy: 99.4144% MPKI: 1.34037 Average ROB Occupancy at Mispredict: 32.907
Branch types
NOT_BRANCH: 154231145 77.1099%
BRANCH_DIRECT_JUMP: 0 0%
BRANCH_INDIRECT: 0 0%
BRANCH_CONDITIONAL: 45783689 22.8901%
BRANCH_DIRECT_CALL: 0 0%
BRANCH_INDIRECT_CALL: 0 0%
BRANCH_RETURN: 0 0%
BRANCH_OTHER: 0 0%


CPU 3 Branch Prediction Accuracy: 99.4144% MPKI: 1.34035 Average ROB Occupancy at Mispredict: 32.9208
Branch types
NOT_BRANCH: 154219718 77.1099%
BRANCH_DIRECT_JUMP: 0 0%
BRANCH_INDIRECT: 0 0%
BRANCH_CONDITIONAL: 45780296 22.8901%
BRANCH_DIRECT_CALL: 0 0%
BRANCH_INDIRECT_CALL: 0 0%
BRANCH_RETURN: 0 0%
BRANCH_OTHER: 0 0%

DRAM PAGES: 1048576
Allocated PAGES: 56040
