
*** ChampSim Multicore Out-of-Order Simulator ***

Warmup Instructions: 50000000
Simulation Instructions: 200000000
Number of CPUs: 4
LLC sets: 8192
LLC ways: 16
Off-chip DRAM Size: 4096 MB Channels: 1 Width: 64-bit Data Rate: 6400 MT/s
CPU 0 runs ./traces/cs/classification_phase5_core0.trace.xz
.xz
CPU 1 runs ./traces/cs/classification_phase5_core1.trace.xz
.xz
CPU 2 runs ./traces/cs/classification_phase5_core2.trace.xz
.xz
CPU 3 runs ./traces/cs/classification_phase5_core3.trace.xz
.xz
BTB has LRU replacement policy
ITLB has LRU replacement policy
DTLB has LRU replacement policy
STLB has LRU replacement policy
L1I has LRU replacement policy
History Sets: 8
History Ways: 16
BERTI Size: 16
BERTI Stride Size: 8
L1D has LRU replacement policy
Initialize SRRIP state for L2C
Initialize DRRIP state for LLC
BTB has LRU replacement policy
ITLB has LRU replacement policy
DTLB has LRU replacement policy
STLB has LRU replacement policy
L1I has LRU replacement policy
History Sets: 8
History Ways: 16
BERTI Size: 16
BERTI Stride Size: 8
L1D has LRU replacement policy
Initialize SRRIP state for L2C
Initialize DRRIP state for LLC
BTB has LRU replacement policy
ITLB has LRU replacement policy
DTLB has LRU replacement policy
STLB has LRU replacement policy
L1I has LRU replacement policy
History Sets: 8
History Ways: 16
BERTI Size: 16
BERTI Stride Size: 8
L1D has LRU replacement policy
Initialize SRRIP state for L2C
Initialize DRRIP state for LLC
BTB has LRU replacement policy
ITLB has LRU replacement policy
DTLB has LRU replacement policy
STLB has LRU replacement policy
L1I has LRU replacement policy
History Sets: 8
History Ways: 16
BERTI Size: 16
BERTI Stride Size: 8
L1D has LRU replacement policy
Initialize SRRIP state for L2C
Initialize DRRIP state for LLC
UNIQUE_ASID[0] = €
UNIQUE_ASID[1] = 
Heartbeat CPU 0 instructions: 10000001 cycles: 2618443 heartbeat IPC: 3.81906 cumulative IPC: 3.81906 (Simulation time: 0 hr 2 min 5 sec) 
Heartbeat CPU 3 instructions: 10000002 cycles: 2637099 heartbeat IPC: 3.79205 cumulative IPC: 3.79205 (Simulation time: 0 hr 2 min 6 sec) 
Heartbeat CPU 2 instructions: 10000001 cycles: 2639088 heartbeat IPC: 3.78919 cumulative IPC: 3.78919 (Simulation time: 0 hr 2 min 6 sec) 
Heartbeat CPU 1 instructions: 10000001 cycles: 2641672 heartbeat IPC: 3.78548 cumulative IPC: 3.78548 (Simulation time: 0 hr 2 min 6 sec) 
Heartbeat CPU 0 instructions: 20000000 cycles: 5233331 heartbeat IPC: 3.82426 cumulative IPC: 3.82166 (Simulation time: 0 hr 4 min 15 sec) 
Heartbeat CPU 2 instructions: 20000003 cycles: 5275405 heartbeat IPC: 3.79317 cumulative IPC: 3.79118 (Simulation time: 0 hr 4 min 17 sec) 
Heartbeat CPU 3 instructions: 20000002 cycles: 5278357 heartbeat IPC: 3.78607 cumulative IPC: 3.78906 (Simulation time: 0 hr 4 min 17 sec) 
Heartbeat CPU 1 instructions: 20000002 cycles: 5281884 heartbeat IPC: 3.78758 cumulative IPC: 3.78653 (Simulation time: 0 hr 4 min 17 sec) 
Heartbeat CPU 2 instructions: 30000002 cycles: 7914523 heartbeat IPC: 3.78914 cumulative IPC: 3.7905 (Simulation time: 0 hr 6 min 27 sec) 
Heartbeat CPU 3 instructions: 30000002 cycles: 7921702 heartbeat IPC: 3.78309 cumulative IPC: 3.78707 (Simulation time: 0 hr 6 min 27 sec) 
Heartbeat CPU 1 instructions: 30000002 cycles: 7932618 heartbeat IPC: 3.77254 cumulative IPC: 3.78185 (Simulation time: 0 hr 6 min 28 sec) 
Heartbeat CPU 0 instructions: 30000002 cycles: 7944529 heartbeat IPC: 3.68841 cumulative IPC: 3.77618 (Simulation time: 0 hr 6 min 28 sec) 
Heartbeat CPU 3 instructions: 40000002 cycles: 10556323 heartbeat IPC: 3.79561 cumulative IPC: 3.7892 (Simulation time: 0 hr 8 min 41 sec) 
Heartbeat CPU 1 instructions: 40000001 cycles: 10563093 heartbeat IPC: 3.80159 cumulative IPC: 3.78677 (Simulation time: 0 hr 8 min 41 sec) 
Heartbeat CPU 0 instructions: 40000001 cycles: 10576212 heartbeat IPC: 3.79985 cumulative IPC: 3.78207 (Simulation time: 0 hr 8 min 42 sec) 
Heartbeat CPU 2 instructions: 40000000 cycles: 10596296 heartbeat IPC: 3.72888 cumulative IPC: 3.7749 (Simulation time: 0 hr 8 min 43 sec) 
Heartbeat CPU 3 instructions: 50000002 cycles: 13196831 heartbeat IPC: 3.78715 cumulative IPC: 3.78879 (Simulation time: 0 hr 10 min 54 sec) 
Heartbeat CPU 0 instructions: 50000000 cycles: 13203827 heartbeat IPC: 3.80573 cumulative IPC: 3.78678 (Simulation time: 0 hr 10 min 54 sec) 
Heartbeat CPU 2 instructions: 50000003 cycles: 13235803 heartbeat IPC: 3.78859 cumulative IPC: 3.77763 (Simulation time: 0 hr 10 min 56 sec) 
Heartbeat CPU 1 instructions: 50000002 cycles: 13242421 heartbeat IPC: 3.73228 cumulative IPC: 3.77574 (Simulation time: 0 hr 10 min 56 sec) 

Warmup complete CPU 0 instructions: 50144673 cycles: 13242421 (Simulation time: 0 hr 10 min 56 sec) 
Warmup complete CPU 1 instructions: 50000002 cycles: 13242421 (Simulation time: 0 hr 10 min 56 sec) 
Warmup complete CPU 2 instructions: 50024509 cycles: 13242420 (Simulation time: 0 hr 10 min 56 sec) 
Warmup complete CPU 3 instructions: 50168316 cycles: 13242420 (Simulation time: 0 hr 10 min 56 sec) 

Heartbeat CPU 2 instructions: 60000003 cycles: 22168344 heartbeat IPC: 1.1195 cumulative IPC: 1.11759 (Simulation time: 0 hr 13 min 8 sec) 
Heartbeat CPU 0 instructions: 60000000 cycles: 23222951 heartbeat IPC: 0.998091 cumulative IPC: 0.987455 (Simulation time: 0 hr 13 min 27 sec) 
Heartbeat CPU 3 instructions: 60000003 cycles: 23639298 heartbeat IPC: 0.957628 cumulative IPC: 0.945638 (Simulation time: 0 hr 13 min 36 sec) 
Heartbeat CPU 1 instructions: 60000001 cycles: 25538173 heartbeat IPC: 0.813289 cumulative IPC: 0.813289 (Simulation time: 0 hr 14 min 3 sec) 
Heartbeat CPU 2 instructions: 70000002 cycles: 31220823 heartbeat IPC: 1.10467 cumulative IPC: 1.11108 (Simulation time: 0 hr 15 min 48 sec) 
Heartbeat CPU 0 instructions: 70000002 cycles: 33205913 heartbeat IPC: 1.00171 cumulative IPC: 0.994582 (Simulation time: 0 hr 16 min 29 sec) 
Heartbeat CPU 3 instructions: 70000003 cycles: 34151437 heartbeat IPC: 0.951281 cumulative IPC: 0.948475 (Simulation time: 0 hr 16 min 47 sec) 
Heartbeat CPU 1 instructions: 70000002 cycles: 35187508 heartbeat IPC: 1.03634 cumulative IPC: 0.911366 (Simulation time: 0 hr 17 min 6 sec) 
Heartbeat CPU 2 instructions: 80000003 cycles: 40034562 heartbeat IPC: 1.13459 cumulative IPC: 1.11882 (Simulation time: 0 hr 18 min 47 sec) 
Heartbeat CPU 0 instructions: 80000002 cycles: 43539539 heartbeat IPC: 0.967715 cumulative IPC: 0.985418 (Simulation time: 0 hr 19 min 56 sec) 
Heartbeat CPU 1 instructions: 80000001 cycles: 44272719 heartbeat IPC: 1.10069 cumulative IPC: 0.966797 (Simulation time: 0 hr 20 min 13 sec) 
Heartbeat CPU 3 instructions: 80000003 cycles: 44469608 heartbeat IPC: 0.969164 cumulative IPC: 0.955311 (Simulation time: 0 hr 20 min 17 sec) 
Heartbeat CPU 2 instructions: 90000000 cycles: 48964798 heartbeat IPC: 1.11979 cumulative IPC: 1.11906 (Simulation time: 0 hr 21 min 19 sec) 
Heartbeat CPU 1 instructions: 90000003 cycles: 53234909 heartbeat IPC: 1.1158 cumulative IPC: 1.00019 (Simulation time: 0 hr 22 min 27 sec) 
Heartbeat CPU 0 instructions: 90000000 cycles: 53469265 heartbeat IPC: 1.00708 cumulative IPC: 0.990764 (Simulation time: 0 hr 22 min 30 sec) 
Heartbeat CPU 3 instructions: 90000003 cycles: 55415460 heartbeat IPC: 0.913588 cumulative IPC: 0.944482 (Simulation time: 0 hr 23 min 1 sec) 
Heartbeat CPU 2 instructions: 100000001 cycles: 57634474 heartbeat IPC: 1.15345 cumulative IPC: 1.12578 (Simulation time: 0 hr 23 min 41 sec) 
Heartbeat CPU 1 instructions: 100000001 cycles: 62245156 heartbeat IPC: 1.10985 cumulative IPC: 1.02035 (Simulation time: 0 hr 25 min 0 sec) 
Heartbeat CPU 0 instructions: 100000002 cycles: 63493894 heartbeat IPC: 0.997543 cumulative IPC: 0.992117 (Simulation time: 0 hr 25 min 16 sec) 
Heartbeat CPU 3 instructions: 100000003 cycles: 66139905 heartbeat IPC: 0.932449 cumulative IPC: 0.942043 (Simulation time: 0 hr 26 min 1 sec) 
Heartbeat CPU 2 instructions: 110000000 cycles: 71082118 heartbeat IPC: 0.743625 cumulative IPC: 1.03693 (Simulation time: 0 hr 27 min 36 sec) 
Heartbeat CPU 0 instructions: 110000000 cycles: 72260217 heartbeat IPC: 1.14073 cumulative IPC: 1.01419 (Simulation time: 0 hr 27 min 59 sec) 
Heartbeat CPU 1 instructions: 110000000 cycles: 72717352 heartbeat IPC: 0.954909 cumulative IPC: 1.00883 (Simulation time: 0 hr 28 min 8 sec) 
Heartbeat CPU 3 instructions: 110000000 cycles: 76998461 heartbeat IPC: 0.920932 cumulative IPC: 0.938447 (Simulation time: 0 hr 29 min 36 sec) 
Heartbeat CPU 0 instructions: 120000002 cycles: 79984313 heartbeat IPC: 1.29465 cumulative IPC: 1.04665 (Simulation time: 0 hr 30 min 39 sec) 
Heartbeat CPU 1 instructions: 120000002 cycles: 81338029 heartbeat IPC: 1.16 cumulative IPC: 1.02797 (Simulation time: 0 hr 31 min 3 sec) 
Heartbeat CPU 2 instructions: 120000003 cycles: 82497458 heartbeat IPC: 0.876014 cumulative IPC: 1.0104 (Simulation time: 0 hr 31 min 21 sec) 
Heartbeat CPU 3 instructions: 120000002 cycles: 86982060 heartbeat IPC: 1.00164 cumulative IPC: 0.947003 (Simulation time: 0 hr 32 min 48 sec) 
Heartbeat CPU 1 instructions: 130000003 cycles: 90674216 heartbeat IPC: 1.0711 cumulative IPC: 1.03317 (Simulation time: 0 hr 33 min 56 sec) 
Heartbeat CPU 0 instructions: 130000003 cycles: 91171934 heartbeat IPC: 0.893845 cumulative IPC: 1.02471 (Simulation time: 0 hr 34 min 3 sec) 
Heartbeat CPU 2 instructions: 130000002 cycles: 94016969 heartbeat IPC: 0.868092 cumulative IPC: 0.990108 (Simulation time: 0 hr 34 min 56 sec) 
Heartbeat CPU 3 instructions: 130000002 cycles: 97231787 heartbeat IPC: 0.975636 cumulative IPC: 0.950498 (Simulation time: 0 hr 35 min 56 sec) 
Heartbeat CPU 1 instructions: 140000000 cycles: 99012013 heartbeat IPC: 1.19936 cumulative IPC: 1.04932 (Simulation time: 0 hr 36 min 31 sec) 
Heartbeat CPU 0 instructions: 140000003 cycles: 103142763 heartbeat IPC: 0.835364 cumulative IPC: 0.999499 (Simulation time: 0 hr 37 min 35 sec) 
Heartbeat CPU 2 instructions: 140000000 cycles: 105396597 heartbeat IPC: 0.878763 cumulative IPC: 0.976358 (Simulation time: 0 hr 38 min 7 sec) 
Heartbeat CPU 1 instructions: 150000002 cycles: 107539447 heartbeat IPC: 1.17269 cumulative IPC: 1.06048 (Simulation time: 0 hr 38 min 36 sec) 
Heartbeat CPU 3 instructions: 140000003 cycles: 107748181 heartbeat IPC: 0.950896 cumulative IPC: 0.950542 (Simulation time: 0 hr 38 min 40 sec) 
Heartbeat CPU 0 instructions: 150000002 cycles: 114445304 heartbeat IPC: 0.884757 cumulative IPC: 0.986685 (Simulation time: 0 hr 40 min 16 sec) 
Heartbeat CPU 2 instructions: 150000002 cycles: 114783934 heartbeat IPC: 1.06527 cumulative IPC: 0.984578 (Simulation time: 0 hr 40 min 24 sec) 
Heartbeat CPU 3 instructions: 150000000 cycles: 117615297 heartbeat IPC: 1.01347 cumulative IPC: 0.956491 (Simulation time: 0 hr 41 min 6 sec) 
Heartbeat CPU 1 instructions: 160000001 cycles: 119257486 heartbeat IPC: 0.853385 cumulative IPC: 1.03759 (Simulation time: 0 hr 41 min 35 sec) 
Heartbeat CPU 2 instructions: 160000003 cycles: 123635541 heartbeat IPC: 1.12974 cumulative IPC: 0.996217 (Simulation time: 0 hr 43 min 7 sec) 
Heartbeat CPU 0 instructions: 160000001 cycles: 124818851 heartbeat IPC: 0.96399 cumulative IPC: 0.984575 (Simulation time: 0 hr 43 min 30 sec) 
Heartbeat CPU 3 instructions: 160000000 cycles: 127958529 heartbeat IPC: 0.966816 cumulative IPC: 0.957422 (Simulation time: 0 hr 44 min 20 sec) 
Heartbeat CPU 1 instructions: 170000001 cycles: 128667743 heartbeat IPC: 1.06267 cumulative IPC: 1.03963 (Simulation time: 0 hr 44 min 30 sec) 
Heartbeat CPU 2 instructions: 170000003 cycles: 132593415 heartbeat IPC: 1.11634 cumulative IPC: 1.00523 (Simulation time: 0 hr 45 min 48 sec) 
Heartbeat CPU 0 instructions: 170000003 cycles: 134962997 heartbeat IPC: 0.98579 cumulative IPC: 0.984676 (Simulation time: 0 hr 46 min 31 sec) 
Heartbeat CPU 1 instructions: 180000000 cycles: 137616474 heartbeat IPC: 1.11748 cumulative IPC: 1.04523 (Simulation time: 0 hr 47 min 8 sec) 
Heartbeat CPU 3 instructions: 170000002 cycles: 138193326 heartbeat IPC: 0.977059 cumulative IPC: 0.95903 (Simulation time: 0 hr 47 min 17 sec) 
Heartbeat CPU 2 instructions: 180000003 cycles: 141341363 heartbeat IPC: 1.14313 cumulative IPC: 1.01465 (Simulation time: 0 hr 48 min 4 sec) 
Heartbeat CPU 0 instructions: 180000003 cycles: 145494581 heartbeat IPC: 0.949525 cumulative IPC: 0.981877 (Simulation time: 0 hr 49 min 4 sec) 
Heartbeat CPU 1 instructions: 190000002 cycles: 146480863 heartbeat IPC: 1.12811 cumulative IPC: 1.05075 (Simulation time: 0 hr 49 min 25 sec) 
Heartbeat CPU 3 instructions: 180000002 cycles: 148254335 heartbeat IPC: 0.993936 cumulative IPC: 0.961631 (Simulation time: 0 hr 50 min 3 sec) 
Heartbeat CPU 2 instructions: 190000003 cycles: 150232406 heartbeat IPC: 1.12473 cumulative IPC: 1.02179 (Simulation time: 0 hr 50 min 32 sec) 
Heartbeat CPU 1 instructions: 200000003 cycles: 155349504 heartbeat IPC: 1.12757 cumulative IPC: 1.05554 (Simulation time: 0 hr 51 min 49 sec) 
Heartbeat CPU 0 instructions: 190000001 cycles: 155566438 heartbeat IPC: 0.992865 cumulative IPC: 0.982654 (Simulation time: 0 hr 51 min 52 sec) 
Heartbeat CPU 2 instructions: 200000001 cycles: 158886037 heartbeat IPC: 1.15558 cumulative IPC: 1.02974 (Simulation time: 0 hr 52 min 38 sec) 
Heartbeat CPU 3 instructions: 190000003 cycles: 159028437 heartbeat IPC: 0.928152 cumulative IPC: 0.959157 (Simulation time: 0 hr 52 min 40 sec) 
Heartbeat CPU 0 instructions: 200000003 cycles: 165941173 heartbeat IPC: 0.96388 cumulative IPC: 0.981379 (Simulation time: 0 hr 54 min 29 sec) 
Heartbeat CPU 1 instructions: 210000003 cycles: 166055076 heartbeat IPC: 0.934093 cumulative IPC: 1.04703 (Simulation time: 0 hr 54 min 30 sec) 
Heartbeat CPU 3 instructions: 200000001 cycles: 169592951 heartbeat IPC: 0.946565 cumulative IPC: 0.958306 (Simulation time: 0 hr 55 min 18 sec) 
Heartbeat CPU 2 instructions: 210000000 cycles: 172027053 heartbeat IPC: 0.760976 cumulative IPC: 1.0075 (Simulation time: 0 hr 56 min 6 sec) 
Heartbeat CPU 0 instructions: 210000001 cycles: 174582743 heartbeat IPC: 1.1572 cumulative IPC: 0.990796 (Simulation time: 0 hr 57 min 0 sec) 
Heartbeat CPU 1 instructions: 220000000 cycles: 174676584 heartbeat IPC: 1.15989 cumulative IPC: 1.05306 (Simulation time: 0 hr 57 min 2 sec) 
Heartbeat CPU 3 instructions: 210000002 cycles: 179840695 heartbeat IPC: 0.975825 cumulative IPC: 0.959384 (Simulation time: 0 hr 58 min 47 sec) 
Heartbeat CPU 0 instructions: 220000000 cycles: 182289875 heartbeat IPC: 1.2975 cumulative IPC: 1.00478 (Simulation time: 0 hr 59 min 37 sec) 
Heartbeat CPU 2 instructions: 220000000 cycles: 183261913 heartbeat IPC: 0.890087 cumulative IPC: 0.999741 (Simulation time: 0 hr 59 min 54 sec) 
Heartbeat CPU 1 instructions: 230000000 cycles: 183931368 heartbeat IPC: 1.08052 cumulative IPC: 1.05455 (Simulation time: 1 hr 0 min 3 sec) 
Heartbeat CPU 3 instructions: 220000000 cycles: 189737053 heartbeat IPC: 1.01047 cumulative IPC: 0.962248 (Simulation time: 1 hr 1 min 37 sec) 
Heartbeat CPU 1 instructions: 240000001 cycles: 192231090 heartbeat IPC: 1.20486 cumulative IPC: 1.06152 (Simulation time: 1 hr 2 min 9 sec) 
Heartbeat CPU 0 instructions: 230000002 cycles: 193303909 heartbeat IPC: 0.907933 cumulative IPC: 0.998855 (Simulation time: 1 hr 2 min 25 sec) 
Heartbeat CPU 2 instructions: 230000001 cycles: 194656530 heartbeat IPC: 0.877607 cumulative IPC: 0.99207 (Simulation time: 1 hr 2 min 48 sec) 
Heartbeat CPU 3 instructions: 230000001 cycles: 199661156 heartbeat IPC: 1.00765 cumulative IPC: 0.964665 (Simulation time: 1 hr 4 min 4 sec) 
Heartbeat CPU 1 instructions: 250000002 cycles: 200726325 heartbeat IPC: 1.17713 cumulative IPC: 1.06676 (Simulation time: 1 hr 4 min 24 sec) 
Finished CPU 1 instructions: 200000000 cycles: 187483904 cumulative IPC: 1.06676 (Simulation time: 1 hr 4 min 24 sec) 
Heartbeat CPU 0 instructions: 240000001 cycles: 205124060 heartbeat IPC: 0.846013 cumulative IPC: 0.98944 (Simulation time: 1 hr 5 min 40 sec) 
Heartbeat CPU 2 instructions: 240000001 cycles: 206070052 heartbeat IPC: 0.876154 cumulative IPC: 0.985209 (Simulation time: 1 hr 5 min 57 sec) 
Heartbeat CPU 3 instructions: 240000002 cycles: 210092887 heartbeat IPC: 0.958614 cumulative IPC: 0.964345 (Simulation time: 1 hr 7 min 10 sec) 
Heartbeat CPU 1 instructions: 260000000 cycles: 212486851 heartbeat IPC: 0.850302 cumulative IPC: 1.05398 (Simulation time: 1 hr 7 min 58 sec) 
Heartbeat CPU 2 instructions: 250000002 cycles: 215607551 heartbeat IPC: 1.04849 cumulative IPC: 0.988191 (Simulation time: 1 hr 8 min 58 sec) 
Finished CPU 2 instructions: 200000001 cycles: 202388634 cumulative IPC: 0.988198 (Simulation time: 1 hr 8 min 58 sec) 
Heartbeat CPU 0 instructions: 250000003 cycles: 216547699 heartbeat IPC: 0.875378 cumulative IPC: 0.983031 (Simulation time: 1 hr 9 min 17 sec) 
Finished CPU 0 instructions: 200000000 cycles: 203397655 cumulative IPC: 0.983296 (Simulation time: 1 hr 9 min 19 sec) 
Heartbeat CPU 3 instructions: 250000002 cycles: 219875789 heartbeat IPC: 1.02219 cumulative IPC: 0.967083 (Simulation time: 1 hr 10 min 22 sec) 
Finished CPU 3 instructions: 200000001 cycles: 206815066 cumulative IPC: 0.967048 (Simulation time: 1 hr 10 min 24 sec) 

ChampSim completed all CPUs

Total Simulation Statistics (not including warmup)

CPU 0 cumulative IPC: 0.982708 instructions: 203238863 cycles: 206815065
ITLB TOTAL     ACCESS:   28807479  HIT:   27510142  MISS:    1297337  HIT %:    95.4965  MISS %:    4.50347   MPKI: 6.38331
ITLB LOAD      ACCESS:          0  HIT:          0  MISS:          0  HIT %:       -nan  MISS %:       -nan   MPKI: 0
ITLB RFO       ACCESS:          0  HIT:          0  MISS:          0  HIT %:       -nan  MISS %:       -nan   MPKI: 0
ITLB PREFETCH  ACCESS:          0  HIT:          0  MISS:          0  HIT %:       -nan  MISS %:       -nan   MPKI: 0
ITLB WRITEBACK ACCESS:          0  HIT:          0  MISS:          0  HIT %:       -nan  MISS %:       -nan   MPKI: 0
DTLB TOTAL     ACCESS:   15526068  HIT:    7505734  MISS:    8020334  HIT %:    48.3428  MISS %:    51.6572   MPKI: 39.4626
DTLB LOAD      ACCESS:          0  HIT:          0  MISS:          0  HIT %:       -nan  MISS %:       -nan   MPKI: 0
DTLB RFO       ACCESS:          0  HIT:          0  MISS:          0  HIT %:       -nan  MISS %:       -nan   MPKI: 0
DTLB PREFETCH  ACCESS:          0  HIT:          0  MISS:          0  HIT %:       -nan  MISS %:       -nan   MPKI: 0
DTLB WRITEBACK ACCESS:          0  HIT:          0  MISS:          0  HIT %:       -nan  MISS %:       -nan   MPKI: 0
STLB TOTAL     ACCESS:    9842241  HIT:    4750067  MISS:    5092174  HIT %:     48.262  MISS %:     51.738   MPKI: 25.0551
STLB LOAD      ACCESS:          0  HIT:          0  MISS:          0  HIT %:       -nan  MISS %:       -nan   MPKI: 0
STLB RFO       ACCESS:          0  HIT:          0  MISS:          0  HIT %:       -nan  MISS %:       -nan   MPKI: 0
STLB PREFETCH  ACCESS:          0  HIT:          0  MISS:          0  HIT %:       -nan  MISS %:       -nan   MPKI: 0
STLB WRITEBACK ACCESS:          0  HIT:          0  MISS:          0  HIT %:       -nan  MISS %:       -nan   MPKI: 0
L1D TOTAL     ACCESS:   18564609  HIT:   17151049  MISS:    1413560  HIT %:    92.3857  MISS %:    7.61427   MPKI: 6.95517
L1D LOAD      ACCESS:   14072511  HIT:   12883471  MISS:    1189040  HIT %:    91.5506  MISS %:    8.44938   MPKI: 5.85046
L1D RFO       ACCESS:    3005071  HIT:    2940202  MISS:      64869  HIT %:    97.8413  MISS %:    2.15865   MPKI: 0.319176
L1D PREFETCH  ACCESS:    1487027  HIT:    1327376  MISS:     159651  HIT %:    89.2637  MISS %:    10.7363   MPKI: 0.785534
L1D WRITEBACK ACCESS:          0  HIT:          0  MISS:          0  HIT %:       -nan  MISS %:       -nan   MPKI: 0
L1I TOTAL     ACCESS:   38357493  HIT:   38340875  MISS:      16618  HIT %:    99.9567  MISS %:   0.043324   MPKI: 0.0817659
L1I LOAD      ACCESS:   38357493  HIT:   38340875  MISS:      16618  HIT %:    99.9567  MISS %:   0.043324   MPKI: 0.0817659
L1I RFO       ACCESS:          0  HIT:          0  MISS:          0  HIT %:       -nan  MISS %:       -nan   MPKI: 0
L1I PREFETCH  ACCESS:          0  HIT:          0  MISS:          0  HIT %:       -nan  MISS %:       -nan   MPKI: 0
L1I WRITEBACK ACCESS:          0  HIT:          0  MISS:          0  HIT %:       -nan  MISS %:       -nan   MPKI: 0
L2C TOTAL     ACCESS:    7832576  HIT:    6668914  MISS:    1163662  HIT %:    85.1433  MISS %:    14.8567   MPKI: 5.72559
L2C LOAD      ACCESS:    1205088  HIT:     431688  MISS:     773400  HIT %:    35.8221  MISS %:    64.1779   MPKI: 3.80537
L2C RFO       ACCESS:      64861  HIT:      36086  MISS:      28775  HIT %:    55.6359  MISS %:    44.3641   MPKI: 0.141582
L2C PREFETCH  ACCESS:     885359  HIT:     667123  MISS:     218236  HIT %:    75.3506  MISS %:    24.6494   MPKI: 1.07379
L2C WRITEBACK ACCESS:     108367  HIT:     103675  MISS:       4692  HIT %:    95.6703  MISS %:    4.32973   MPKI: 0.0230861
PSCL5 TOTAL     ACCESS:    5092548  HIT:    5092548  MISS:          0  HIT %:        100  MISS %:          0   MPKI: 0
PSCL5 LOAD      ACCESS:          0  HIT:          0  MISS:          0  HIT %:       -nan  MISS %:       -nan   MPKI: 0
PSCL5 RFO       ACCESS:          0  HIT:          0  MISS:          0  HIT %:       -nan  MISS %:       -nan   MPKI: 0
PSCL5 PREFETCH  ACCESS:          0  HIT:          0  MISS:          0  HIT %:       -nan  MISS %:       -nan   MPKI: 0
PSCL5 WRITEBACK ACCESS:          0  HIT:          0  MISS:          0  HIT %:       -nan  MISS %:       -nan   MPKI: 0
PSCL4 TOTAL     ACCESS:    5092548  HIT:    5092548  MISS:          0  HIT %:        100  MISS %:          0   MPKI: 0
PSCL4 LOAD      ACCESS:          0  HIT:          0  MISS:          0  HIT %:       -nan  MISS %:       -nan   MPKI: 0
PSCL4 RFO       ACCESS:          0  HIT:          0  MISS:          0  HIT %:       -nan  MISS %:       -nan   MPKI: 0
PSCL4 PREFETCH  ACCESS:          0  HIT:          0  MISS:          0  HIT %:       -nan  MISS %:       -nan   MPKI: 0
PSCL4 WRITEBACK ACCESS:          0  HIT:          0  MISS:          0  HIT %:       -nan  MISS %:       -nan   MPKI: 0
PSCL3 TOTAL     ACCESS:    5091170  HIT:    5091066  MISS:        104  HIT %:     99.998  MISS %: 0.00204275   MPKI: 0.000511713
PSCL3 LOAD      ACCESS:          0  HIT:          0  MISS:          0  HIT %:       -nan  MISS %:       -nan   MPKI: 0
PSCL3 RFO       ACCESS:          0  HIT:          0  MISS:          0  HIT %:       -nan  MISS %:       -nan   MPKI: 0
PSCL3 PREFETCH  ACCESS:          0  HIT:          0  MISS:          0  HIT %:       -nan  MISS %:       -nan   MPKI: 0
PSCL3 WRITEBACK ACCESS:          0  HIT:          0  MISS:          0  HIT %:       -nan  MISS %:       -nan   MPKI: 0
PSCL2 TOTAL     ACCESS:    5092547  HIT:    4616298  MISS:     476249  HIT %:    90.6481  MISS %:    9.35188   MPKI: 2.3433
PSCL2 LOAD      ACCESS:          0  HIT:          0  MISS:          0  HIT %:       -nan  MISS %:       -nan   MPKI: 0
PSCL2 RFO       ACCESS:          0  HIT:          0  MISS:          0  HIT %:       -nan  MISS %:       -nan   MPKI: 0
PSCL2 PREFETCH  ACCESS:          0  HIT:          0  MISS:          0  HIT %:       -nan  MISS %:       -nan   MPKI: 0
PSCL2 WRITEBACK ACCESS:          0  HIT:          0  MISS:          0  HIT %:       -nan  MISS %:       -nan   MPKI: 0
LLC TOTAL     ACCESS:    1218473  HIT:     860299  MISS:     358174  HIT %:    70.6047  MISS %:    29.3953   MPKI: 1.76233
LLC LOAD      ACCESS:     771830  HIT:     518358  MISS:     253472  HIT %:    67.1596  MISS %:    32.8404   MPKI: 1.24716
LLC RFO       ACCESS:      28775  HIT:        870  MISS:      27905  HIT %:    3.02346  MISS %:    96.9765   MPKI: 0.137301
LLC PREFETCH  ACCESS:     219805  HIT:     170011  MISS:      49794  HIT %:    77.3463  MISS %:    22.6537   MPKI: 0.245002
LLC WRITEBACK ACCESS:      59504  HIT:      54160  MISS:       5344  HIT %:    91.0191  MISS %:    8.98091   MPKI: 0.0262942

RAW hits: 460821
Loads Generated: 22796763
Loads sent to L1D: 22335937
Stores Generated: 3254445
Stores sent to L1D: 3254446

CPU 1 cumulative IPC: 1.05466 instructions: 218119202 cycles: 206815065
ITLB TOTAL     ACCESS:   31122971  HIT:   29626595  MISS:    1496376  HIT %:    95.1921  MISS %:    4.80795   MPKI: 6.86036
ITLB LOAD      ACCESS:          0  HIT:          0  MISS:          0  HIT %:       -nan  MISS %:       -nan   MPKI: 0
ITLB RFO       ACCESS:          0  HIT:          0  MISS:          0  HIT %:       -nan  MISS %:       -nan   MPKI: 0
ITLB PREFETCH  ACCESS:          0  HIT:          0  MISS:          0  HIT %:       -nan  MISS %:       -nan   MPKI: 0
ITLB WRITEBACK ACCESS:          0  HIT:          0  MISS:          0  HIT %:       -nan  MISS %:       -nan   MPKI: 0
DTLB TOTAL     ACCESS:   16970736  HIT:    7905732  MISS:    9065004  HIT %:    46.5845  MISS %:    53.4155   MPKI: 41.5599
DTLB LOAD      ACCESS:          0  HIT:          0  MISS:          0  HIT %:       -nan  MISS %:       -nan   MPKI: 0
DTLB RFO       ACCESS:          0  HIT:          0  MISS:          0  HIT %:       -nan  MISS %:       -nan   MPKI: 0
DTLB PREFETCH  ACCESS:          0  HIT:          0  MISS:          0  HIT %:       -nan  MISS %:       -nan   MPKI: 0
DTLB WRITEBACK ACCESS:          0  HIT:          0  MISS:          0  HIT %:       -nan  MISS %:       -nan   MPKI: 0
STLB TOTAL     ACCESS:   11078645  HIT:    5314911  MISS:    5763734  HIT %:    47.9744  MISS %:    52.0256   MPKI: 26.4247
STLB LOAD      ACCESS:          0  HIT:          0  MISS:          0  HIT %:       -nan  MISS %:       -nan   MPKI: 0
STLB RFO       ACCESS:          0  HIT:          0  MISS:          0  HIT %:       -nan  MISS %:       -nan   MPKI: 0
STLB PREFETCH  ACCESS:          0  HIT:          0  MISS:          0  HIT %:       -nan  MISS %:       -nan   MPKI: 0
STLB WRITEBACK ACCESS:          0  HIT:          0  MISS:          0  HIT %:       -nan  MISS %:       -nan   MPKI: 0
L1D TOTAL     ACCESS:   19825972  HIT:   18271366  MISS:    1554606  HIT %:    92.1587  MISS %:    7.84126   MPKI: 7.12732
L1D LOAD      ACCESS:   15362139  HIT:   13978946  MISS:    1383193  HIT %:    90.9961  MISS %:    9.00391   MPKI: 6.34145
L1D RFO       ACCESS:    3316004  HIT:    3243999  MISS:      72005  HIT %:    97.8286  MISS %:    2.17144   MPKI: 0.330118
L1D PREFETCH  ACCESS:    1147829  HIT:    1048421  MISS:      99408  HIT %:    91.3395  MISS %:    8.66052   MPKI: 0.455751
L1D WRITEBACK ACCESS:          0  HIT:          0  MISS:          0  HIT %:       -nan  MISS %:       -nan   MPKI: 0
L1I TOTAL     ACCESS:   41219576  HIT:   41203131  MISS:      16445  HIT %:    99.9601  MISS %:  0.0398961   MPKI: 0.0753946
L1I LOAD      ACCESS:   41219576  HIT:   41203131  MISS:      16445  HIT %:    99.9601  MISS %:  0.0398961   MPKI: 0.0753946
L1I RFO       ACCESS:          0  HIT:          0  MISS:          0  HIT %:       -nan  MISS %:       -nan   MPKI: 0
L1I PREFETCH  ACCESS:          0  HIT:          0  MISS:          0  HIT %:       -nan  MISS %:       -nan   MPKI: 0
L1I WRITEBACK ACCESS:          0  HIT:          0  MISS:          0  HIT %:       -nan  MISS %:       -nan   MPKI: 0
L2C TOTAL     ACCESS:    8940937  HIT:    7736795  MISS:    1204142  HIT %:    86.5323  MISS %:    13.4677   MPKI: 5.52057
L2C LOAD      ACCESS:    1399391  HIT:     573151  MISS:     826240  HIT %:    40.9572  MISS %:    59.0428   MPKI: 3.78802
L2C RFO       ACCESS:      71994  HIT:      19554  MISS:      52440  HIT %:    27.1606  MISS %:    72.8394   MPKI: 0.240419
L2C PREFETCH  ACCESS:    1099325  HIT:     931645  MISS:     167680  HIT %:     84.747  MISS %:     15.253   MPKI: 0.768754
L2C WRITEBACK ACCESS:      99057  HIT:      92266  MISS:       6791  HIT %:    93.1444  MISS %:    6.85565   MPKI: 0.0311344
PSCL5 TOTAL     ACCESS:    5764648  HIT:    5764648  MISS:          0  HIT %:        100  MISS %:          0   MPKI: 0
PSCL5 LOAD      ACCESS:          0  HIT:          0  MISS:          0  HIT %:       -nan  MISS %:       -nan   MPKI: 0
PSCL5 RFO       ACCESS:          0  HIT:          0  MISS:          0  HIT %:       -nan  MISS %:       -nan   MPKI: 0
PSCL5 PREFETCH  ACCESS:          0  HIT:          0  MISS:          0  HIT %:       -nan  MISS %:       -nan   MPKI: 0
PSCL5 WRITEBACK ACCESS:          0  HIT:          0  MISS:          0  HIT %:       -nan  MISS %:       -nan   MPKI: 0
PSCL4 TOTAL     ACCESS:    5764648  HIT:    5764648  MISS:          0  HIT %:        100  MISS %:          0   MPKI: 0
PSCL4 LOAD      ACCESS:          0  HIT:          0  MISS:          0  HIT %:       -nan  MISS %:       -nan   MPKI: 0
PSCL4 RFO       ACCESS:          0  HIT:          0  MISS:          0  HIT %:       -nan  MISS %:       -nan   MPKI: 0
PSCL4 PREFETCH  ACCESS:          0  HIT:          0  MISS:          0  HIT %:       -nan  MISS %:       -nan   MPKI: 0
PSCL4 WRITEBACK ACCESS:          0  HIT:          0  MISS:          0  HIT %:       -nan  MISS %:       -nan   MPKI: 0
PSCL3 TOTAL     ACCESS:    5764373  HIT:    5764281  MISS:         92  HIT %:    99.9984  MISS %: 0.00159601   MPKI: 0.000421788
PSCL3 LOAD      ACCESS:          0  HIT:          0  MISS:          0  HIT %:       -nan  MISS %:       -nan   MPKI: 0
PSCL3 RFO       ACCESS:          0  HIT:          0  MISS:          0  HIT %:       -nan  MISS %:       -nan   MPKI: 0
PSCL3 PREFETCH  ACCESS:          0  HIT:          0  MISS:          0  HIT %:       -nan  MISS %:       -nan   MPKI: 0
PSCL3 WRITEBACK ACCESS:          0  HIT:          0  MISS:          0  HIT %:       -nan  MISS %:       -nan   MPKI: 0
PSCL2 TOTAL     ACCESS:    5764644  HIT:    5258196  MISS:     506448  HIT %:    91.2146  MISS %:    8.78542   MPKI: 2.32189
PSCL2 LOAD      ACCESS:          0  HIT:          0  MISS:          0  HIT %:       -nan  MISS %:       -nan   MPKI: 0
PSCL2 RFO       ACCESS:          0  HIT:          0  MISS:          0  HIT %:       -nan  MISS %:       -nan   MPKI: 0
PSCL2 PREFETCH  ACCESS:          0  HIT:          0  MISS:          0  HIT %:       -nan  MISS %:       -nan   MPKI: 0
PSCL2 WRITEBACK ACCESS:          0  HIT:          0  MISS:          0  HIT %:       -nan  MISS %:       -nan   MPKI: 0
LLC TOTAL     ACCESS:    1274400  HIT:    1028608  MISS:     245792  HIT %:    80.7131  MISS %:    19.2869   MPKI: 1.12687
LLC LOAD      ACCESS:     825710  HIT:     687286  MISS:     138424  HIT %:    83.2358  MISS %:    16.7642   MPKI: 0.634625
LLC RFO       ACCESS:      52440  HIT:        949  MISS:      51491  HIT %:    1.80969  MISS %:    98.1903   MPKI: 0.236068
LLC PREFETCH  ACCESS:     168210  HIT:     137920  MISS:      30290  HIT %:    81.9927  MISS %:    18.0073   MPKI: 0.138869
LLC WRITEBACK ACCESS:      77049  HIT:      66505  MISS:      10544  HIT %:    86.3152  MISS %:    13.6848   MPKI: 0.0483405

RAW hits: 488155
Loads Generated: 24954862
Loads sent to L1D: 24466707
Stores Generated: 3724336
Stores sent to L1D: 3724336

CPU 2 cumulative IPC: 0.990558 instructions: 204862325 cycles: 206815066
ITLB TOTAL     ACCESS:   29258817  HIT:   27984641  MISS:    1274176  HIT %:    95.6452  MISS %:    4.35484   MPKI: 6.21967
ITLB LOAD      ACCESS:          0  HIT:          0  MISS:          0  HIT %:       -nan  MISS %:       -nan   MPKI: 0
ITLB RFO       ACCESS:          0  HIT:          0  MISS:          0  HIT %:       -nan  MISS %:       -nan   MPKI: 0
ITLB PREFETCH  ACCESS:          0  HIT:          0  MISS:          0  HIT %:       -nan  MISS %:       -nan   MPKI: 0
ITLB WRITEBACK ACCESS:          0  HIT:          0  MISS:          0  HIT %:       -nan  MISS %:       -nan   MPKI: 0
DTLB TOTAL     ACCESS:   15901934  HIT:    7335501  MISS:    8566433  HIT %:    46.1296  MISS %:    53.8704   MPKI: 41.8156
DTLB LOAD      ACCESS:          0  HIT:          0  MISS:          0  HIT %:       -nan  MISS %:       -nan   MPKI: 0
DTLB RFO       ACCESS:          0  HIT:          0  MISS:          0  HIT %:       -nan  MISS %:       -nan   MPKI: 0
DTLB PREFETCH  ACCESS:          0  HIT:          0  MISS:          0  HIT %:       -nan  MISS %:       -nan   MPKI: 0
DTLB WRITEBACK ACCESS:          0  HIT:          0  MISS:          0  HIT %:       -nan  MISS %:       -nan   MPKI: 0
STLB TOTAL     ACCESS:   10405290  HIT:    5162189  MISS:    5243101  HIT %:    49.6112  MISS %:    50.3888   MPKI: 25.5933
STLB LOAD      ACCESS:          0  HIT:          0  MISS:          0  HIT %:       -nan  MISS %:       -nan   MPKI: 0
STLB RFO       ACCESS:          0  HIT:          0  MISS:          0  HIT %:       -nan  MISS %:       -nan   MPKI: 0
STLB PREFETCH  ACCESS:          0  HIT:          0  MISS:          0  HIT %:       -nan  MISS %:       -nan   MPKI: 0
STLB WRITEBACK ACCESS:          0  HIT:          0  MISS:          0  HIT %:       -nan  MISS %:       -nan   MPKI: 0
L1D TOTAL     ACCESS:   19313536  HIT:   17786858  MISS:    1526678  HIT %:    92.0953  MISS %:     7.9047   MPKI: 7.45221
L1D LOAD      ACCESS:   14601501  HIT:   13296252  MISS:    1305249  HIT %:    91.0609  MISS %:    8.93914   MPKI: 6.37135
L1D RFO       ACCESS:    2982518  HIT:    2904061  MISS:      78457  HIT %:    97.3694  MISS %:    2.63056   MPKI: 0.382974
L1D PREFETCH  ACCESS:    1729517  HIT:    1586545  MISS:     142972  HIT %:    91.7334  MISS %:    8.26659   MPKI: 0.697893
L1D WRITEBACK ACCESS:          0  HIT:          0  MISS:          0  HIT %:       -nan  MISS %:       -nan   MPKI: 0
L1I TOTAL     ACCESS:   38855979  HIT:   38836494  MISS:      19485  HIT %:    99.9499  MISS %:  0.0501467   MPKI: 0.0951127
L1I LOAD      ACCESS:   38855979  HIT:   38836494  MISS:      19485  HIT %:    99.9499  MISS %:  0.0501467   MPKI: 0.0951127
L1I RFO       ACCESS:          0  HIT:          0  MISS:          0  HIT %:       -nan  MISS %:       -nan   MPKI: 0
L1I PREFETCH  ACCESS:          0  HIT:          0  MISS:          0  HIT %:       -nan  MISS %:       -nan   MPKI: 0
L1I WRITEBACK ACCESS:          0  HIT:          0  MISS:          0  HIT %:       -nan  MISS %:       -nan   MPKI: 0
L2C TOTAL     ACCESS:    8279304  HIT:    6928832  MISS:    1350472  HIT %:    83.6886  MISS %:    16.3114   MPKI: 6.5921
L2C LOAD      ACCESS:    1324487  HIT:     395882  MISS:     928605  HIT %:    29.8895  MISS %:    70.1105   MPKI: 4.53282
L2C RFO       ACCESS:      78444  HIT:      36849  MISS:      41595  HIT %:    46.9749  MISS %:    53.0251   MPKI: 0.203039
L2C PREFETCH  ACCESS:    1037390  HIT:     826549  MISS:     210841  HIT %:    79.6758  MISS %:    20.3242   MPKI: 1.02918
L2C WRITEBACK ACCESS:     104068  HIT:      98037  MISS:       6031  HIT %:    94.2048  MISS %:    5.79525   MPKI: 0.0294393
PSCL5 TOTAL     ACCESS:    5245571  HIT:    5245571  MISS:          0  HIT %:        100  MISS %:          0   MPKI: 0
PSCL5 LOAD      ACCESS:          0  HIT:          0  MISS:          0  HIT %:       -nan  MISS %:       -nan   MPKI: 0
PSCL5 RFO       ACCESS:          0  HIT:          0  MISS:          0  HIT %:       -nan  MISS %:       -nan   MPKI: 0
PSCL5 PREFETCH  ACCESS:          0  HIT:          0  MISS:          0  HIT %:       -nan  MISS %:       -nan   MPKI: 0
PSCL5 WRITEBACK ACCESS:          0  HIT:          0  MISS:          0  HIT %:       -nan  MISS %:       -nan   MPKI: 0
PSCL4 TOTAL     ACCESS:    5245571  HIT:    5245571  MISS:          0  HIT %:        100  MISS %:          0   MPKI: 0
PSCL4 LOAD      ACCESS:          0  HIT:          0  MISS:          0  HIT %:       -nan  MISS %:       -nan   MPKI: 0
PSCL4 RFO       ACCESS:          0  HIT:          0  MISS:          0  HIT %:       -nan  MISS %:       -nan   MPKI: 0
PSCL4 PREFETCH  ACCESS:          0  HIT:          0  MISS:          0  HIT %:       -nan  MISS %:       -nan   MPKI: 0
PSCL4 WRITEBACK ACCESS:          0  HIT:          0  MISS:          0  HIT %:       -nan  MISS %:       -nan   MPKI: 0
PSCL3 TOTAL     ACCESS:    5245098  HIT:    5245007  MISS:         91  HIT %:    99.9983  MISS %: 0.00173495   MPKI: 0.000444201
PSCL3 LOAD      ACCESS:          0  HIT:          0  MISS:          0  HIT %:       -nan  MISS %:       -nan   MPKI: 0
PSCL3 RFO       ACCESS:          0  HIT:          0  MISS:          0  HIT %:       -nan  MISS %:       -nan   MPKI: 0
PSCL3 PREFETCH  ACCESS:          0  HIT:          0  MISS:          0  HIT %:       -nan  MISS %:       -nan   MPKI: 0
PSCL3 WRITEBACK ACCESS:          0  HIT:          0  MISS:          0  HIT %:       -nan  MISS %:       -nan   MPKI: 0
PSCL2 TOTAL     ACCESS:    5243516  HIT:    4754256  MISS:     489260  HIT %:    90.6692  MISS %:    9.33076   MPKI: 2.38824
PSCL2 LOAD      ACCESS:          0  HIT:          0  MISS:          0  HIT %:       -nan  MISS %:       -nan   MPKI: 0
PSCL2 RFO       ACCESS:          0  HIT:          0  MISS:          0  HIT %:       -nan  MISS %:       -nan   MPKI: 0
PSCL2 PREFETCH  ACCESS:          0  HIT:          0  MISS:          0  HIT %:       -nan  MISS %:       -nan   MPKI: 0
PSCL2 WRITEBACK ACCESS:          0  HIT:          0  MISS:          0  HIT %:       -nan  MISS %:       -nan   MPKI: 0
LLC TOTAL     ACCESS:    1401769  HIT:    1082981  MISS:     318788  HIT %:    77.2582  MISS %:    22.7418   MPKI: 1.55611
LLC LOAD      ACCESS:     928034  HIT:     731794  MISS:     196240  HIT %:    78.8542  MISS %:    21.1458   MPKI: 0.957912
LLC RFO       ACCESS:      41595  HIT:        898  MISS:      40697  HIT %:    2.15891  MISS %:    97.8411   MPKI: 0.198655
LLC PREFETCH  ACCESS:     211412  HIT:     148280  MISS:      63132  HIT %:    70.1379  MISS %:    29.8621   MPKI: 0.308168
LLC WRITEBACK ACCESS:      57328  HIT:      52140  MISS:       5188  HIT %:    90.9503  MISS %:    9.04968   MPKI: 0.0253243

RAW hits: 437517
Loads Generated: 23287944
Loads sent to L1D: 22850425
Stores Generated: 3288968
Stores sent to L1D: 3288968

CPU 3 cumulative IPC: 0.967048 instructions: 200000001 cycles: 206815066
ITLB TOTAL     ACCESS:   28617019  HIT:   27368051  MISS:    1248968  HIT %:    95.6356  MISS %:    4.36442   MPKI: 6.24484
ITLB LOAD      ACCESS:          0  HIT:          0  MISS:          0  HIT %:       -nan  MISS %:       -nan   MPKI: 0
ITLB RFO       ACCESS:          0  HIT:          0  MISS:          0  HIT %:       -nan  MISS %:       -nan   MPKI: 0
ITLB PREFETCH  ACCESS:          0  HIT:          0  MISS:          0  HIT %:       -nan  MISS %:       -nan   MPKI: 0
ITLB WRITEBACK ACCESS:          0  HIT:          0  MISS:          0  HIT %:       -nan  MISS %:       -nan   MPKI: 0
DTLB TOTAL     ACCESS:   15284390  HIT:    6668364  MISS:    8616026  HIT %:    43.6286  MISS %:    56.3714   MPKI: 43.0801
DTLB LOAD      ACCESS:          0  HIT:          0  MISS:          0  HIT %:       -nan  MISS %:       -nan   MPKI: 0
DTLB RFO       ACCESS:          0  HIT:          0  MISS:          0  HIT %:       -nan  MISS %:       -nan   MPKI: 0
DTLB PREFETCH  ACCESS:          0  HIT:          0  MISS:          0  HIT %:       -nan  MISS %:       -nan   MPKI: 0
DTLB WRITEBACK ACCESS:          0  HIT:          0  MISS:          0  HIT %:       -nan  MISS %:       -nan   MPKI: 0
STLB TOTAL     ACCESS:   10452524  HIT:    5216797  MISS:    5235727  HIT %:    49.9094  MISS %:    50.0906   MPKI: 26.1786
STLB LOAD      ACCESS:          0  HIT:          0  MISS:          0  HIT %:       -nan  MISS %:       -nan   MPKI: 0
STLB RFO       ACCESS:          0  HIT:          0  MISS:          0  HIT %:       -nan  MISS %:       -nan   MPKI: 0
STLB PREFETCH  ACCESS:          0  HIT:          0  MISS:          0  HIT %:       -nan  MISS %:       -nan   MPKI: 0
STLB WRITEBACK ACCESS:          0  HIT:          0  MISS:          0  HIT %:       -nan  MISS %:       -nan   MPKI: 0
L1D TOTAL     ACCESS:   18451360  HIT:   16798118  MISS:    1653242  HIT %:      91.04  MISS %:       8.96   MPKI: 8.26621
L1D LOAD      ACCESS:   14171257  HIT:   12748137  MISS:    1423120  HIT %:    89.9577  MISS %:    10.0423   MPKI: 7.1156
L1D RFO       ACCESS:    2617192  HIT:    2521035  MISS:      96157  HIT %:    96.3259  MISS %:    3.67405   MPKI: 0.480785
L1D PREFETCH  ACCESS:    1662911  HIT:    1528946  MISS:     133965  HIT %:    91.9439  MISS %:    8.05605   MPKI: 0.669825
L1D WRITEBACK ACCESS:          0  HIT:          0  MISS:          0  HIT %:       -nan  MISS %:       -nan   MPKI: 0
L1I TOTAL     ACCESS:   37894188  HIT:   37889934  MISS:       4254  HIT %:    99.9888  MISS %:   0.011226   MPKI: 0.02127
L1I LOAD      ACCESS:   37894188  HIT:   37889934  MISS:       4254  HIT %:    99.9888  MISS %:   0.011226   MPKI: 0.02127
L1I RFO       ACCESS:          0  HIT:          0  MISS:          0  HIT %:       -nan  MISS %:       -nan   MPKI: 0
L1I PREFETCH  ACCESS:          0  HIT:          0  MISS:          0  HIT %:       -nan  MISS %:       -nan   MPKI: 0
L1I WRITEBACK ACCESS:          0  HIT:          0  MISS:          0  HIT %:       -nan  MISS %:       -nan   MPKI: 0
L2C TOTAL     ACCESS:    8865894  HIT:    7341668  MISS:    1524226  HIT %:     82.808  MISS %:     17.192   MPKI: 7.62113
L2C LOAD      ACCESS:    1427279  HIT:     402820  MISS:    1024459  HIT %:    28.2229  MISS %:    71.7771   MPKI: 5.12229
L2C RFO       ACCESS:      96150  HIT:      66144  MISS:      30006  HIT %:    68.7925  MISS %:    31.2075   MPKI: 0.15003
L2C PREFETCH  ACCESS:    1277286  HIT:     989349  MISS:     287937  HIT %:    77.4571  MISS %:    22.5429   MPKI: 1.43968
L2C WRITEBACK ACCESS:     122331  HIT:     118055  MISS:       4276  HIT %:    96.5046  MISS %:    3.49543   MPKI: 0.02138
PSCL5 TOTAL     ACCESS:    5236530  HIT:    5236530  MISS:          0  HIT %:        100  MISS %:          0   MPKI: 0
PSCL5 LOAD      ACCESS:          0  HIT:          0  MISS:          0  HIT %:       -nan  MISS %:       -nan   MPKI: 0
PSCL5 RFO       ACCESS:          0  HIT:          0  MISS:          0  HIT %:       -nan  MISS %:       -nan   MPKI: 0
PSCL5 PREFETCH  ACCESS:          0  HIT:          0  MISS:          0  HIT %:       -nan  MISS %:       -nan   MPKI: 0
PSCL5 WRITEBACK ACCESS:          0  HIT:          0  MISS:          0  HIT %:       -nan  MISS %:       -nan   MPKI: 0
PSCL4 TOTAL     ACCESS:    5236530  HIT:    5236530  MISS:          0  HIT %:        100  MISS %:          0   MPKI: 0
PSCL4 LOAD      ACCESS:          0  HIT:          0  MISS:          0  HIT %:       -nan  MISS %:       -nan   MPKI: 0
PSCL4 RFO       ACCESS:          0  HIT:          0  MISS:          0  HIT %:       -nan  MISS %:       -nan   MPKI: 0
PSCL4 PREFETCH  ACCESS:          0  HIT:          0  MISS:          0  HIT %:       -nan  MISS %:       -nan   MPKI: 0
PSCL4 WRITEBACK ACCESS:          0  HIT:          0  MISS:          0  HIT %:       -nan  MISS %:       -nan   MPKI: 0
PSCL3 TOTAL     ACCESS:    5233380  HIT:    5233316  MISS:         64  HIT %:    99.9988  MISS %: 0.00122292   MPKI: 0.00032
PSCL3 LOAD      ACCESS:          0  HIT:          0  MISS:          0  HIT %:       -nan  MISS %:       -nan   MPKI: 0
PSCL3 RFO       ACCESS:          0  HIT:          0  MISS:          0  HIT %:       -nan  MISS %:       -nan   MPKI: 0
PSCL3 PREFETCH  ACCESS:          0  HIT:          0  MISS:          0  HIT %:       -nan  MISS %:       -nan   MPKI: 0
PSCL3 WRITEBACK ACCESS:          0  HIT:          0  MISS:          0  HIT %:       -nan  MISS %:       -nan   MPKI: 0
PSCL2 TOTAL     ACCESS:    5236518  HIT:    4530251  MISS:     706267  HIT %:    86.5127  MISS %:    13.4873   MPKI: 3.53133
PSCL2 LOAD      ACCESS:          0  HIT:          0  MISS:          0  HIT %:       -nan  MISS %:       -nan   MPKI: 0
PSCL2 RFO       ACCESS:          0  HIT:          0  MISS:          0  HIT %:       -nan  MISS %:       -nan   MPKI: 0
PSCL2 PREFETCH  ACCESS:          0  HIT:          0  MISS:          0  HIT %:       -nan  MISS %:       -nan   MPKI: 0
PSCL2 WRITEBACK ACCESS:          0  HIT:          0  MISS:          0  HIT %:       -nan  MISS %:       -nan   MPKI: 0
LLC TOTAL     ACCESS:    1552277  HIT:    1277074  MISS:     275203  HIT %:     82.271  MISS %:     17.729   MPKI: 1.37601
LLC LOAD      ACCESS:    1024283  HIT:     833262  MISS:     191021  HIT %:    81.3508  MISS %:    18.6492   MPKI: 0.955105
LLC RFO       ACCESS:      30006  HIT:       1030  MISS:      28976  HIT %:    3.43265  MISS %:    96.5674   MPKI: 0.14488
LLC PREFETCH  ACCESS:     288113  HIT:     247125  MISS:      40988  HIT %:    85.7736  MISS %:    14.2264   MPKI: 0.20494
LLC WRITEBACK ACCESS:      32327  HIT:      29305  MISS:       3022  HIT %:    90.6518  MISS %:    9.34822   MPKI: 0.01511

RAW hits: 416232
Loads Generated: 22903903
Loads sent to L1D: 22487671
Stores Generated: 2844714
Stores sent to L1D: 2844711

Region of Interest Statistics

CPU 0 cumulative IPC: 0.983296 instructions: 200000000 cycles: 203397655
ITLB TOTAL     ACCESS:   28348803  HIT:   27071902  MISS:    1276901  HIT %:    95.4957  MISS %:    4.50425   MPKI: 6.3845
ITLB LOAD TRANSLATION ACCESS:   28348803  HIT:   27071902  MISS:    1276901  HIT %:    95.4957  MISS %:    4.50425   MPKI: 6.3845
ITLB PREFETCH  REQUESTED:          0  ISSUED:          0  USEFUL:          0  USELESS:          0
ITLB USEFUL LOAD PREFETCHES:          0 PREFETCH ISSUED TO LOWER LEVEL:          0  ACCURACY: -nan
ITLB TIMELY PREFETCHES:          0 LATE PREFETCHES: 0 DROPPED PREFETCHES: 0
ITLB PREFETCHES SAME FILL-ORIGIN LEVEL: 0 DIFFERENT FILL-ORIGIN LEVEL: 0
ITLB AVERAGE MISS LATENCY: 32.8293 cycles
ITLB RQ	ACCESS:   38363645	FORWARD:          0	MERGED:    8925175	TO_CACHE:   29438470

DTLB TOTAL     ACCESS:   15283328  HIT:    7402899  MISS:    7880429  HIT %:    48.4377  MISS %:    51.5623   MPKI: 39.4021
DTLB LOAD TRANSLATION ACCESS:   15283328  HIT:    7402899  MISS:    7880429  HIT %:    48.4377  MISS %:    51.5623   MPKI: 39.4021
DTLB PREFETCH  REQUESTED:          0  ISSUED:          0  USEFUL:          0  USELESS:          0
DTLB USEFUL LOAD PREFETCHES:          0 PREFETCH ISSUED TO LOWER LEVEL:          0  ACCURACY: -nan
DTLB TIMELY PREFETCHES:          0 LATE PREFETCHES: 0 DROPPED PREFETCHES: 0
DTLB PREFETCHES SAME FILL-ORIGIN LEVEL: 0 DIFFERENT FILL-ORIGIN LEVEL: 0
DTLB AVERAGE MISS LATENCY: 23.7433 cycles
DTLB RQ	ACCESS:   17291220	FORWARD:          0	MERGED:    1137141	TO_CACHE:   16154079

STLB TOTAL     ACCESS:    9674765  HIT:    4669267  MISS:    5005498  HIT %:    48.2623  MISS %:    51.7377   MPKI: 25.0275
STLB LOAD TRANSLATION ACCESS:    9157330  HIT:    4162922  MISS:    4994408  HIT %:      45.46  MISS %:      54.54   MPKI: 24.972
STLB TRANSLATION FROM L1D PREFETCHER ACCESS:     517435  HIT:     506345  MISS:      11090  HIT %:    97.8567  MISS %:    2.14326   MPKI: 0.05545
STLB PREFETCH  REQUESTED:          0  ISSUED:          0  USEFUL:       7385  USELESS:       3883
STLB USEFUL LOAD PREFETCHES:       7385 PREFETCH ISSUED TO LOWER LEVEL:          0  ACCURACY: inf
STLB TIMELY PREFETCHES:       7385 LATE PREFETCHES: 0 DROPPED PREFETCHES: 372
STLB PREFETCHES SAME FILL-ORIGIN LEVEL: 0 DIFFERENT FILL-ORIGIN LEVEL: 0
STLB AVERAGE MISS LATENCY: 28.959 cycles
STLB RQ	ACCESS:   11557046	FORWARD:          0	MERGED:    1713954	TO_CACHE:    9843092

STLB Hit, L1D data hit: 0
STLB Hit, L2C data hit: 0
STLB Hit, LLC data hit: 0
STLB Hit, LLC data miss: 0
STLB STLB hints to L2: 0
L1D TOTAL     ACCESS:   18288403  HIT:   16899637  MISS:    1388766  HIT %:    92.4063  MISS %:     7.5937   MPKI: 6.94383
L1D LOAD      ACCESS:   13851846  HIT:   12684193  MISS:    1167653  HIT %:    91.5704  MISS %:    8.42958   MPKI: 5.83826
L1D RFO       ACCESS:    2966304  HIT:    2902861  MISS:      63443  HIT %:    97.8612  MISS %:    2.13879   MPKI: 0.317215
L1D PREFETCH  ACCESS:    1470253  HIT:    1312583  MISS:     157670  HIT %:     89.276  MISS %:     10.724   MPKI: 0.78835
L1D PREFETCH  REQUESTED:    4635961  ISSUED:    4628591  USEFUL:     131150  USELESS:      28587
L1D USEFUL LOAD PREFETCHES:     131150 PREFETCH ISSUED TO LOWER LEVEL:     901531  ACCURACY: 14.5475
L1D TIMELY PREFETCHES:     131150 LATE PREFETCHES: 562 DROPPED PREFETCHES: 815
L1D PREFETCHES SAME FILL-ORIGIN LEVEL: 160213 DIFFERENT FILL-ORIGIN LEVEL: 741318
L1D AVERAGE MISS LATENCY: 65.9341 cycles
L1D RQ	ACCESS:   22335937	FORWARD:          0	MERGED:    8211152	TO_CACHE:   14105517
L1D WQ	ACCESS:    3254446	FORWARD:      19268	MERGED:      68743	TO_CACHE:    3185703
L1D PQ	ACCESS:    2389218	FORWARD:          0	MERGED:     149845	TO_CACHE:    2239373

L1D UNIQUE REGIONS ACCESSED: 0
L1D REGIONS CONFLICTS: 0
L1D Cross Page Prefetch Requests: 419924
L1D Same Page Prefetch Requests: 2701308
L1D ROI Sum of L1D PQ occupancy: 29256606
L1D PREFETCHES PUSHED FROM L2C: 0
L1I TOTAL     ACCESS:   37746563  HIT:   37729949  MISS:      16614  HIT %:     99.956  MISS %:  0.0440146   MPKI: 0.08307
L1I LOAD      ACCESS:   37746563  HIT:   37729949  MISS:      16614  HIT %:     99.956  MISS %:  0.0440146   MPKI: 0.08307
L1I PREFETCH  REQUESTED:          0  ISSUED:          0  USEFUL:          0  USELESS:          0
L1I USEFUL LOAD PREFETCHES:          0 PREFETCH ISSUED TO LOWER LEVEL:          0  ACCURACY: -nan
L1I TIMELY PREFETCHES:          0 LATE PREFETCHES: 0 DROPPED PREFETCHES: 0
L1I PREFETCHES SAME FILL-ORIGIN LEVEL: 0 DIFFERENT FILL-ORIGIN LEVEL: 0
L1I AVERAGE MISS LATENCY: 134.346 cycles
L1I RQ	ACCESS:   59105192	FORWARD:          0	MERGED:   20741547	TO_CACHE:   38363645

BTB BRANCH_DIRECT_JUMP	ACCESS:          0  HIT:          0  MISS:          0
BTB BRANCH_INDIRECT	ACCESS:          0  HIT:          0  MISS:          0
BTB BRANCH_CONDITIONAL	ACCESS:          0  HIT:          0  MISS:          0
BTB BRANCH_DIRECT_CALL	ACCESS:          0  HIT:          0  MISS:          0
BTB BRANCH_INDIRECT_CALL	ACCESS:          0  HIT:          0  MISS:          0
BTB BRANCH_RETURN	ACCESS:          0  HIT:          0  MISS:          0
BTB BRANCH_OTHER ACCESS:          0  HIT:          0  MISS:          0

L2C TOTAL     ACCESS:    7701132  HIT:    6559471  MISS:    1141661  HIT %:    85.1754  MISS %:    14.8246   MPKI: 5.70831
L2C LOAD      ACCESS:    1183697  HIT:     425579  MISS:     758118  HIT %:    35.9534  MISS %:    64.0466   MPKI: 3.79059
L2C DATA LOAD MPKI: 3.7347
L2C INSTRUCTION LOAD MPKI: 0.05589
L2C RFO       ACCESS:      63435  HIT:      35118  MISS:      28317  HIT %:    55.3606  MISS %:    44.6394   MPKI: 0.141585
L2C PREFETCH  ACCESS:     873204  HIT:     658276  MISS:     214928  HIT %:    75.3863  MISS %:    24.6137   MPKI: 1.07464
L2C DATA PREFETCH MPKI: 1.07464
L2C INSTRUCTION PREFETCH MPKI: 0
L2C WRITEBACK ACCESS:     106454  HIT:     101836  MISS:       4618  HIT %:     95.662  MISS %:    4.33802   MPKI: 0.02309
L2C LOAD TRANSLATION ACCESS:    5462862  HIT:    5327526  MISS:     135336  HIT %:    97.5226  MISS %:    2.47738   MPKI: 0.67668
L2C TRANSLATION FROM L1D PREFETCHER ACCESS:      11480  HIT:      11136  MISS:        344  HIT %:    97.0035  MISS %:    2.99652   MPKI: 0.00172
L2C PREFETCH  REQUESTED:          0  ISSUED:          0  USEFUL:      69244  USELESS:     151220
L2C USEFUL LOAD PREFETCHES:      69244 PREFETCH ISSUED TO LOWER LEVEL:     219805  ACCURACY: 31.5025
L2C TIMELY PREFETCHES:      69244 LATE PREFETCHES: 1569 DROPPED PREFETCHES: 0
L2C PREFETCHES SAME FILL-ORIGIN LEVEL: 167355 DIFFERENT FILL-ORIGIN LEVEL: 0
L2C AVERAGE MISS LATENCY: 82.2946 cycles
L2C RQ	ACCESS:    6838867	FORWARD:          0	MERGED:          0	TO_CACHE:    6838853
L2C WQ	ACCESS:     108367	FORWARD:         15	MERGED:          0	TO_CACHE:     108367
L2C PQ	ACCESS:     901531	FORWARD:          0	MERGED:        898	TO_CACHE:     900632

L2C Instructions Evicting Data 9370
L2C Translations Evicting Data 122829
L2C Data Evicting Data 878198
L2C Instructions Evicting Instructions 678
L2C Translations Evicting Instructions 859
L2C Data Evicting Instructions 9500
L2C Instructions Evicting Translations 1134
L2C Translations Evicting Translations 14871
L2C Data Evicting Translations 121529
L2C Dense regions hint from L2: 0
PSCL5 TOTAL     ACCESS:    5005867  HIT:    5005867  MISS:          0  HIT %:        100  MISS %:          0   MPKI: 0
PSCL5 LOAD TRANSLATION ACCESS:    4994409  HIT:    4994409  MISS:          0  HIT %:        100  MISS %:          0   MPKI: 0
PSCL5 TRANSLATION FROM L1D PREFETCHER ACCESS:      11458  HIT:      11458  MISS:          0  HIT %:        100  MISS %:          0   MPKI: 0
PSCL5 PREFETCH  REQUESTED:          0  ISSUED:          0  USEFUL:          0  USELESS:          0
PSCL5 USEFUL LOAD PREFETCHES:          0 PREFETCH ISSUED TO LOWER LEVEL:          0  ACCURACY: -nan
PSCL5 TIMELY PREFETCHES:          0 LATE PREFETCHES: 0 DROPPED PREFETCHES: 0
PSCL5 PREFETCHES SAME FILL-ORIGIN LEVEL: 0 DIFFERENT FILL-ORIGIN LEVEL: 0

PSCL4 TOTAL     ACCESS:    5005867  HIT:    5005867  MISS:          0  HIT %:        100  MISS %:          0   MPKI: 0
PSCL4 LOAD TRANSLATION ACCESS:    4994409  HIT:    4994409  MISS:          0  HIT %:        100  MISS %:          0   MPKI: 0
PSCL4 TRANSLATION FROM L1D PREFETCHER ACCESS:      11458  HIT:      11458  MISS:          0  HIT %:        100  MISS %:          0   MPKI: 0
PSCL4 PREFETCH  REQUESTED:          0  ISSUED:          0  USEFUL:          0  USELESS:          0
PSCL4 USEFUL LOAD PREFETCHES:          0 PREFETCH ISSUED TO LOWER LEVEL:          0  ACCURACY: -nan
PSCL4 TIMELY PREFETCHES:          0 LATE PREFETCHES: 0 DROPPED PREFETCHES: 0
PSCL4 PREFETCHES SAME FILL-ORIGIN LEVEL: 0 DIFFERENT FILL-ORIGIN LEVEL: 0

PSCL3 TOTAL     ACCESS:    5004489  HIT:    5004385  MISS:        104  HIT %:    99.9979  MISS %: 0.00207813   MPKI: 0.00052
PSCL3 LOAD TRANSLATION ACCESS:    4993033  HIT:    4992929  MISS:        104  HIT %:    99.9979  MISS %:  0.0020829   MPKI: 0.00052
PSCL3 TRANSLATION FROM L1D PREFETCHER ACCESS:      11456  HIT:      11456  MISS:          0  HIT %:        100  MISS %:          0   MPKI: 0
PSCL3 PREFETCH  REQUESTED:          0  ISSUED:          0  USEFUL:          0  USELESS:          0
PSCL3 USEFUL LOAD PREFETCHES:          0 PREFETCH ISSUED TO LOWER LEVEL:          0  ACCURACY: -nan
PSCL3 TIMELY PREFETCHES:          0 LATE PREFETCHES: 0 DROPPED PREFETCHES: 0
PSCL3 PREFETCHES SAME FILL-ORIGIN LEVEL: 0 DIFFERENT FILL-ORIGIN LEVEL: 0

PSCL2 TOTAL     ACCESS:    5005866  HIT:    4537496  MISS:     468370  HIT %:    90.6436  MISS %:    9.35642   MPKI: 2.34185
PSCL2 LOAD TRANSLATION ACCESS:    4994430  HIT:    4526060  MISS:     468370  HIT %:    90.6222  MISS %:    9.37785   MPKI: 2.34185
PSCL2 TRANSLATION FROM L1D PREFETCHER ACCESS:      11436  HIT:      11436  MISS:          0  HIT %:        100  MISS %:          0   MPKI: 0
PSCL2 PREFETCH  REQUESTED:          0  ISSUED:          0  USEFUL:          0  USELESS:          0
PSCL2 USEFUL LOAD PREFETCHES:          0 PREFETCH ISSUED TO LOWER LEVEL:          0  ACCURACY: -nan
PSCL2 TIMELY PREFETCHES:          0 LATE PREFETCHES: 0 DROPPED PREFETCHES: 0
PSCL2 PREFETCHES SAME FILL-ORIGIN LEVEL: 0 DIFFERENT FILL-ORIGIN LEVEL: 0

LLC TOTAL     ACCESS:    1195881  HIT:     843755  MISS:     352126  HIT %:    70.5551  MISS %:    29.4449   MPKI: 1.76063
LLC LOAD      ACCESS:     756554  HIT:     507716  MISS:     248838  HIT %:     67.109  MISS %:     32.891   MPKI: 1.24419
LLC RFO       ACCESS:      28317  HIT:        857  MISS:      27460  HIT %:    3.02645  MISS %:    96.9735   MPKI: 0.1373
LLC PREFETCH  ACCESS:     216491  HIT:     167254  MISS:      49237  HIT %:    77.2568  MISS %:    22.7432   MPKI: 0.246185
LLC WRITEBACK ACCESS:      58839  HIT:      53531  MISS:       5308  HIT %:    90.9788  MISS %:    9.02123   MPKI: 0.02654
LLC LOAD TRANSLATION ACCESS:     135336  HIT:     114156  MISS:      21180  HIT %:    84.3501  MISS %:    15.6499   MPKI: 0.1059
LLC TRANSLATION FROM L1D PREFETCHER ACCESS:        344  HIT:        241  MISS:        103  HIT %:    70.0581  MISS %:    29.9419   MPKI: 0.000515
LLC PREFETCH  REQUESTED:          0  ISSUED:          0  USEFUL:      18033  USELESS:     169419
LLC USEFUL LOAD PREFETCHES:      18033 PREFETCH ISSUED TO LOWER LEVEL:     184204  ACCURACY: 9.78969
LLC TIMELY PREFETCHES:      18033 LATE PREFETCHES: 0 DROPPED PREFETCHES: 0
LLC PREFETCHES SAME FILL-ORIGIN LEVEL: 0 DIFFERENT FILL-ORIGIN LEVEL: 0
LLC AVERAGE MISS LATENCY: 565.267 cycles
LLC RQ	ACCESS:    4333173	FORWARD:          0	MERGED:          0	TO_CACHE:    4333172
LLC WQ	ACCESS:     226208	FORWARD:          1	MERGED:          0	TO_CACHE:     226208
LLC PQ	ACCESS:     887540	FORWARD:          0	MERGED:          0	TO_CACHE:     887540

LLC Dense regions hint to LLC: 0

RAW hits: 455327
Loads Generated: 22441863
Loads sent to L1D: 21986533
Stores Generated: 3212216
Stores sent to L1D: 3212216
Major fault: 0 Minor fault: 9850
Allocated PAGES: 41111

CPU 1 cumulative IPC: 1.06676 instructions: 200000000 cycles: 187483904
ITLB TOTAL     ACCESS:   28534273  HIT:   27158284  MISS:    1375989  HIT %:    95.1778  MISS %:    4.82223   MPKI: 6.87995
ITLB LOAD TRANSLATION ACCESS:   28534273  HIT:   27158284  MISS:    1375989  HIT %:    95.1778  MISS %:    4.82223   MPKI: 6.87995
ITLB PREFETCH  REQUESTED:          0  ISSUED:          0  USEFUL:          0  USELESS:          0
ITLB USEFUL LOAD PREFETCHES:          0 PREFETCH ISSUED TO LOWER LEVEL:          0  ACCURACY: -nan
ITLB TIMELY PREFETCHES:          0 LATE PREFETCHES: 0 DROPPED PREFETCHES: 0
ITLB PREFETCHES SAME FILL-ORIGIN LEVEL: 0 DIFFERENT FILL-ORIGIN LEVEL: 0
ITLB AVERAGE MISS LATENCY: 38.9953 cycles
ITLB RQ	ACCESS:   41225933	FORWARD:          0	MERGED:    9505106	TO_CACHE:   31720827

DTLB TOTAL     ACCESS:   15547313  HIT:    7271319  MISS:    8275994  HIT %:     46.769  MISS %:     53.231   MPKI: 41.38
DTLB LOAD TRANSLATION ACCESS:   15547313  HIT:    7271319  MISS:    8275994  HIT %:     46.769  MISS %:     53.231   MPKI: 41.38
DTLB PREFETCH  REQUESTED:          0  ISSUED:          0  USEFUL:          0  USELESS:          0
DTLB USEFUL LOAD PREFETCHES:          0 PREFETCH ISSUED TO LOWER LEVEL:          0  ACCURACY: -nan
DTLB TIMELY PREFETCHES:          0 LATE PREFETCHES: 0 DROPPED PREFETCHES: 0
DTLB PREFETCHES SAME FILL-ORIGIN LEVEL: 0 DIFFERENT FILL-ORIGIN LEVEL: 0
DTLB AVERAGE MISS LATENCY: 25.1302 cycles
DTLB RQ	ACCESS:   19069981	FORWARD:          0	MERGED:    1312083	TO_CACHE:   17757898

STLB TOTAL     ACCESS:   10119617  HIT:    4835731  MISS:    5283886  HIT %:    47.7857  MISS %:    52.2143   MPKI: 26.4194
STLB LOAD TRANSLATION ACCESS:    9651983  HIT:    4382905  MISS:    5269078  HIT %:    45.4094  MISS %:    54.5906   MPKI: 26.3454
STLB TRANSLATION FROM L1D PREFETCHER ACCESS:     467634  HIT:     452826  MISS:      14808  HIT %:    96.8334  MISS %:    3.16658   MPKI: 0.07404
STLB PREFETCH  REQUESTED:          0  ISSUED:          0  USEFUL:       9500  USELESS:       6647
STLB USEFUL LOAD PREFETCHES:       9500 PREFETCH ISSUED TO LOWER LEVEL:          0  ACCURACY: inf
STLB TIMELY PREFETCHES:       9500 LATE PREFETCHES: 0 DROPPED PREFETCHES: 914
STLB PREFETCHES SAME FILL-ORIGIN LEVEL: 0 DIFFERENT FILL-ORIGIN LEVEL: 0
STLB AVERAGE MISS LATENCY: 31.4877 cycles
STLB RQ	ACCESS:   12723376	FORWARD:          0	MERGED:    1643414	TO_CACHE:   11079962

STLB Hit, L1D data hit: 0
STLB Hit, L2C data hit: 0
STLB Hit, LLC data hit: 0
STLB Hit, LLC data miss: 0
STLB STLB hints to L2: 0
L1D TOTAL     ACCESS:   18162153  HIT:   16742358  MISS:    1419795  HIT %:    92.1827  MISS %:    7.81733   MPKI: 7.09898
L1D LOAD      ACCESS:   14080778  HIT:   12815116  MISS:    1265662  HIT %:    91.0114  MISS %:    8.98858   MPKI: 6.32831
L1D RFO       ACCESS:    3044010  HIT:    2979286  MISS:      64724  HIT %:    97.8737  MISS %:    2.12627   MPKI: 0.32362
L1D PREFETCH  ACCESS:    1037365  HIT:     947956  MISS:      89409  HIT %:    91.3811  MISS %:    8.61886   MPKI: 0.447045
L1D PREFETCH  REQUESTED:    4425572  ISSUED:    4419374  USEFUL:      76255  USELESS:      23171
L1D USEFUL LOAD PREFETCHES:      76255 PREFETCH ISSUED TO LOWER LEVEL:    1107025  ACCURACY: 6.88828
L1D TIMELY PREFETCHES:      76255 LATE PREFETCHES: 242 DROPPED PREFETCHES: 2457
L1D PREFETCHES SAME FILL-ORIGIN LEVEL: 99650 DIFFERENT FILL-ORIGIN LEVEL: 1007375
L1D AVERAGE MISS LATENCY: 55.1515 cycles
L1D RQ	ACCESS:   24466707	FORWARD:          0	MERGED:    9046197	TO_CACHE:   15406070
L1D WQ	ACCESS:    3724336	FORWARD:      14440	MERGED:      60425	TO_CACHE:    3663911
L1D PQ	ACCESS:    2257378	FORWARD:          0	MERGED:      95382	TO_CACHE:    2161996

L1D UNIQUE REGIONS ACCESSED: 0
L1D REGIONS CONFLICTS: 0
L1D Cross Page Prefetch Requests: 355805
L1D Same Page Prefetch Requests: 2407152
L1D ROI Sum of L1D PQ occupancy: 28193710
L1D PREFETCHES PUSHED FROM L2C: 0
L1I TOTAL     ACCESS:   37793469  HIT:   37777897  MISS:      15572  HIT %:    99.9588  MISS %:  0.0412029   MPKI: 0.07786
L1I LOAD      ACCESS:   37793469  HIT:   37777897  MISS:      15572  HIT %:    99.9588  MISS %:  0.0412029   MPKI: 0.07786
L1I PREFETCH  REQUESTED:          0  ISSUED:          0  USEFUL:          0  USELESS:          0
L1I USEFUL LOAD PREFETCHES:          0 PREFETCH ISSUED TO LOWER LEVEL:          0  ACCURACY: -nan
L1I TIMELY PREFETCHES:          0 LATE PREFETCHES: 0 DROPPED PREFETCHES: 0
L1I PREFETCHES SAME FILL-ORIGIN LEVEL: 0 DIFFERENT FILL-ORIGIN LEVEL: 0
L1I AVERAGE MISS LATENCY: 158.882 cycles
L1I RQ	ACCESS:   64277992	FORWARD:          0	MERGED:   23052059	TO_CACHE:   41225933

BTB BRANCH_DIRECT_JUMP	ACCESS:          0  HIT:          0  MISS:          0
BTB BRANCH_INDIRECT	ACCESS:          0  HIT:          0  MISS:          0
BTB BRANCH_CONDITIONAL	ACCESS:          0  HIT:          0  MISS:          0
BTB BRANCH_DIRECT_CALL	ACCESS:          0  HIT:          0  MISS:          0
BTB BRANCH_INDIRECT_CALL	ACCESS:          0  HIT:          0  MISS:          0
BTB BRANCH_RETURN	ACCESS:          0  HIT:          0  MISS:          0
BTB BRANCH_OTHER ACCESS:          0  HIT:          0  MISS:          0

L2C TOTAL     ACCESS:    8173439  HIT:    7085699  MISS:    1087740  HIT %:    86.6918  MISS %:    13.3082   MPKI: 5.4387
L2C LOAD      ACCESS:    1280994  HIT:     534564  MISS:     746430  HIT %:    41.7304  MISS %:    58.2696   MPKI: 3.73215
L2C DATA LOAD MPKI: 3.67426
L2C INSTRUCTION LOAD MPKI: 0.057895
L2C RFO       ACCESS:      64713  HIT:      16993  MISS:      47720  HIT %:     26.259  MISS %:     73.741   MPKI: 0.2386
L2C PREFETCH  ACCESS:     988404  HIT:     837137  MISS:     151267  HIT %:    84.6958  MISS %:    15.3042   MPKI: 0.756335
L2C DATA PREFETCH MPKI: 0.756335
L2C INSTRUCTION PREFETCH MPKI: 0
L2C WRITEBACK ACCESS:      87837  HIT:      81623  MISS:       6214  HIT %:    92.9255  MISS %:    7.07447   MPKI: 0.03107
L2C LOAD TRANSLATION ACCESS:    5735785  HIT:    5599772  MISS:     136013  HIT %:    97.6287  MISS %:    2.37131   MPKI: 0.680065
L2C TRANSLATION FROM L1D PREFETCHER ACCESS:      15706  HIT:      15610  MISS:         96  HIT %:    99.3888  MISS %:   0.611231   MPKI: 0.00048
L2C PREFETCH  REQUESTED:          0  ISSUED:          0  USEFUL:      78090  USELESS:      92166
L2C USEFUL LOAD PREFETCHES:      78090 PREFETCH ISSUED TO LOWER LEVEL:     168210  ACCURACY: 46.4241
L2C TIMELY PREFETCHES:      78090 LATE PREFETCHES: 530 DROPPED PREFETCHES: 0
L2C PREFETCHES SAME FILL-ORIGIN LEVEL: 144469 DIFFERENT FILL-ORIGIN LEVEL: 0
L2C AVERAGE MISS LATENCY: 69.8168 cycles
L2C RQ	ACCESS:    7742573	FORWARD:          0	MERGED:          0	TO_CACHE:    7742557
L2C WQ	ACCESS:      99057	FORWARD:         16	MERGED:          0	TO_CACHE:      99057
L2C PQ	ACCESS:    1107025	FORWARD:          0	MERGED:        246	TO_CACHE:    1106779

L2C Instructions Evicting Data 10229
L2C Translations Evicting Data 132994
L2C Data Evicting Data 891913
L2C Instructions Evicting Instructions 709
L2C Translations Evicting Instructions 1336
L2C Data Evicting Instructions 10916
L2C Instructions Evicting Translations 1484
L2C Translations Evicting Translations 16661
L2C Data Evicting Translations 131106
L2C Dense regions hint from L2: 0
PSCL5 TOTAL     ACCESS:    5284768  HIT:    5284768  MISS:          0  HIT %:        100  MISS %:          0   MPKI: 0
PSCL5 LOAD TRANSLATION ACCESS:    5269079  HIT:    5269079  MISS:          0  HIT %:        100  MISS %:          0   MPKI: 0
PSCL5 TRANSLATION FROM L1D PREFETCHER ACCESS:      15689  HIT:      15689  MISS:          0  HIT %:        100  MISS %:          0   MPKI: 0
PSCL5 PREFETCH  REQUESTED:          0  ISSUED:          0  USEFUL:          0  USELESS:          0
PSCL5 USEFUL LOAD PREFETCHES:          0 PREFETCH ISSUED TO LOWER LEVEL:          0  ACCURACY: -nan
PSCL5 TIMELY PREFETCHES:          0 LATE PREFETCHES: 0 DROPPED PREFETCHES: 0
PSCL5 PREFETCHES SAME FILL-ORIGIN LEVEL: 0 DIFFERENT FILL-ORIGIN LEVEL: 0

PSCL4 TOTAL     ACCESS:    5284768  HIT:    5284768  MISS:          0  HIT %:        100  MISS %:          0   MPKI: 0
PSCL4 LOAD TRANSLATION ACCESS:    5269079  HIT:    5269079  MISS:          0  HIT %:        100  MISS %:          0   MPKI: 0
PSCL4 TRANSLATION FROM L1D PREFETCHER ACCESS:      15689  HIT:      15689  MISS:          0  HIT %:        100  MISS %:          0   MPKI: 0
PSCL4 PREFETCH  REQUESTED:          0  ISSUED:          0  USEFUL:          0  USELESS:          0
PSCL4 USEFUL LOAD PREFETCHES:          0 PREFETCH ISSUED TO LOWER LEVEL:          0  ACCURACY: -nan
PSCL4 TIMELY PREFETCHES:          0 LATE PREFETCHES: 0 DROPPED PREFETCHES: 0
PSCL4 PREFETCHES SAME FILL-ORIGIN LEVEL: 0 DIFFERENT FILL-ORIGIN LEVEL: 0

PSCL3 TOTAL     ACCESS:    5284495  HIT:    5284408  MISS:         87  HIT %:    99.9984  MISS %: 0.00164633   MPKI: 0.000435
PSCL3 LOAD TRANSLATION ACCESS:    5268806  HIT:    5268719  MISS:         87  HIT %:    99.9983  MISS %: 0.00165123   MPKI: 0.000435
PSCL3 TRANSLATION FROM L1D PREFETCHER ACCESS:      15689  HIT:      15689  MISS:          0  HIT %:        100  MISS %:          0   MPKI: 0
PSCL3 PREFETCH  REQUESTED:          0  ISSUED:          0  USEFUL:          0  USELESS:          0
PSCL3 USEFUL LOAD PREFETCHES:          0 PREFETCH ISSUED TO LOWER LEVEL:          0  ACCURACY: -nan
PSCL3 TIMELY PREFETCHES:          0 LATE PREFETCHES: 0 DROPPED PREFETCHES: 0
PSCL3 PREFETCHES SAME FILL-ORIGIN LEVEL: 0 DIFFERENT FILL-ORIGIN LEVEL: 0

PSCL2 TOTAL     ACCESS:    5284764  HIT:    4818110  MISS:     466654  HIT %:    91.1698  MISS %:    8.83018   MPKI: 2.33327
PSCL2 LOAD TRANSLATION ACCESS:    5269092  HIT:    4802438  MISS:     466654  HIT %:    91.1436  MISS %:    8.85644   MPKI: 2.33327
PSCL2 TRANSLATION FROM L1D PREFETCHER ACCESS:      15672  HIT:      15672  MISS:          0  HIT %:        100  MISS %:          0   MPKI: 0
PSCL2 PREFETCH  REQUESTED:          0  ISSUED:          0  USEFUL:          0  USELESS:          0
PSCL2 USEFUL LOAD PREFETCHES:          0 PREFETCH ISSUED TO LOWER LEVEL:          0  ACCURACY: -nan
PSCL2 TIMELY PREFETCHES:          0 LATE PREFETCHES: 0 DROPPED PREFETCHES: 0
PSCL2 PREFETCHES SAME FILL-ORIGIN LEVEL: 0 DIFFERENT FILL-ORIGIN LEVEL: 0

LLC TOTAL     ACCESS:    1147595  HIT:     937400  MISS:     210195  HIT %:    81.6839  MISS %:    18.3161   MPKI: 1.05097
LLC LOAD      ACCESS:     745972  HIT:     631045  MISS:     114927  HIT %:    84.5937  MISS %:    15.4063   MPKI: 0.574635
LLC RFO       ACCESS:      47720  HIT:        865  MISS:      46855  HIT %:    1.81266  MISS %:    98.1873   MPKI: 0.234275
LLC PREFETCH  ACCESS:     151725  HIT:     124108  MISS:      27617  HIT %:     81.798  MISS %:     18.202   MPKI: 0.138085
LLC WRITEBACK ACCESS:      66069  HIT:      57251  MISS:       8818  HIT %:    86.6533  MISS %:    13.3467   MPKI: 0.04409
LLC LOAD TRANSLATION ACCESS:     136013  HIT:     124080  MISS:      11933  HIT %:    91.2266  MISS %:    8.77343   MPKI: 0.059665
LLC TRANSLATION FROM L1D PREFETCHER ACCESS:         96  HIT:         51  MISS:         45  HIT %:     53.125  MISS %:     46.875   MPKI: 0.000225
LLC PREFETCH  REQUESTED:          0  ISSUED:          0  USEFUL:      18033  USELESS:     169419
LLC USEFUL LOAD PREFETCHES:      18033 PREFETCH ISSUED TO LOWER LEVEL:     184204  ACCURACY: 9.78969
LLC TIMELY PREFETCHES:      18033 LATE PREFETCHES: 0 DROPPED PREFETCHES: 0
LLC PREFETCHES SAME FILL-ORIGIN LEVEL: 0 DIFFERENT FILL-ORIGIN LEVEL: 0
LLC AVERAGE MISS LATENCY: 946.955 cycles
LLC RQ	ACCESS:    4333173	FORWARD:          0	MERGED:          0	TO_CACHE:    4333172
LLC WQ	ACCESS:     226208	FORWARD:          1	MERGED:          0	TO_CACHE:     226208
LLC PQ	ACCESS:     887540	FORWARD:          0	MERGED:          0	TO_CACHE:     887540

LLC Dense regions hint to LLC: 0

RAW hits: 449922
Loads Generated: 22875181
Loads sent to L1D: 22425259
Stores Generated: 3417834
Stores sent to L1D: 3417834
Major fault: 0 Minor fault: 9304
Allocated PAGES: 41111

CPU 2 cumulative IPC: 0.988198 instructions: 200000001 cycles: 202388634
ITLB TOTAL     ACCESS:   28566957  HIT:   27326008  MISS:    1240949  HIT %:     95.656  MISS %:      4.344   MPKI: 6.20474
ITLB LOAD TRANSLATION ACCESS:   28566957  HIT:   27326008  MISS:    1240949  HIT %:     95.656  MISS %:      4.344   MPKI: 6.20474
ITLB PREFETCH  REQUESTED:          0  ISSUED:          0  USEFUL:          0  USELESS:          0
ITLB USEFUL LOAD PREFETCHES:          0 PREFETCH ISSUED TO LOWER LEVEL:          0  ACCURACY: -nan
ITLB TIMELY PREFETCHES:          0 LATE PREFETCHES: 0 DROPPED PREFETCHES: 0
ITLB PREFETCHES SAME FILL-ORIGIN LEVEL: 0 DIFFERENT FILL-ORIGIN LEVEL: 0
ITLB AVERAGE MISS LATENCY: 37.4954 cycles
ITLB RQ	ACCESS:   38863236	FORWARD:          0	MERGED:    9064223	TO_CACHE:   29799013

DTLB TOTAL     ACCESS:   15547063  HIT:    7173852  MISS:    8373211  HIT %:    46.1428  MISS %:    53.8572   MPKI: 41.8661
DTLB LOAD TRANSLATION ACCESS:   15547063  HIT:    7173852  MISS:    8373211  HIT %:    46.1428  MISS %:    53.8572   MPKI: 41.8661
DTLB PREFETCH  REQUESTED:          0  ISSUED:          0  USEFUL:          0  USELESS:          0
DTLB USEFUL LOAD PREFETCHES:          0 PREFETCH ISSUED TO LOWER LEVEL:          0  ACCURACY: -nan
DTLB TIMELY PREFETCHES:          0 LATE PREFETCHES: 0 DROPPED PREFETCHES: 0
DTLB PREFETCHES SAME FILL-ORIGIN LEVEL: 0 DIFFERENT FILL-ORIGIN LEVEL: 0
DTLB AVERAGE MISS LATENCY: 23.1791 cycles
DTLB RQ	ACCESS:   17888762	FORWARD:          0	MERGED:    1387352	TO_CACHE:   16501410

STLB TOTAL     ACCESS:   10169512  HIT:    5057009  MISS:    5112503  HIT %:    49.7272  MISS %:    50.2728   MPKI: 25.5625
STLB LOAD TRANSLATION ACCESS:    9614160  HIT:    4514840  MISS:    5099320  HIT %:    46.9603  MISS %:    53.0397   MPKI: 25.4966
STLB TRANSLATION FROM L1D PREFETCHER ACCESS:     555352  HIT:     542169  MISS:      13183  HIT %:    97.6262  MISS %:    2.37381   MPKI: 0.065915
STLB PREFETCH  REQUESTED:          0  ISSUED:          0  USEFUL:       7800  USELESS:       5631
STLB USEFUL LOAD PREFETCHES:       7800 PREFETCH ISSUED TO LOWER LEVEL:          0  ACCURACY: inf
STLB TIMELY PREFETCHES:       7800 LATE PREFETCHES: 0 DROPPED PREFETCHES: 2470
STLB PREFETCHES SAME FILL-ORIGIN LEVEL: 0 DIFFERENT FILL-ORIGIN LEVEL: 0
STLB AVERAGE MISS LATENCY: 29.6973 cycles
STLB RQ	ACCESS:   12500944	FORWARD:          0	MERGED:    2092874	TO_CACHE:   10408070

STLB Hit, L1D data hit: 0
STLB Hit, L2C data hit: 0
STLB Hit, LLC data hit: 0
STLB Hit, LLC data miss: 0
STLB STLB hints to L2: 0
L1D TOTAL     ACCESS:   18894031  HIT:   17401798  MISS:    1492233  HIT %:    92.1021  MISS %:    7.89791   MPKI: 7.46116
L1D LOAD      ACCESS:   14269818  HIT:   12995773  MISS:    1274045  HIT %:    91.0718  MISS %:    8.92825   MPKI: 6.37022
L1D RFO       ACCESS:    2922349  HIT:    2845032  MISS:      77317  HIT %:    97.3543  MISS %:    2.64571   MPKI: 0.386585
L1D PREFETCH  ACCESS:    1701864  HIT:    1560993  MISS:     140871  HIT %:    91.7225  MISS %:    8.27745   MPKI: 0.704355
L1D PREFETCH  REQUESTED:    5445160  ISSUED:    5432914  USEFUL:     112917  USELESS:      30022
L1D USEFUL LOAD PREFETCHES:     112917 PREFETCH ISSUED TO LOWER LEVEL:    1054713  ACCURACY: 10.7059
L1D TIMELY PREFETCHES:     112917 LATE PREFETCHES: 245 DROPPED PREFETCHES: 10001
L1D PREFETCHES SAME FILL-ORIGIN LEVEL: 143217 DIFFERENT FILL-ORIGIN LEVEL: 911496
L1D AVERAGE MISS LATENCY: 60.6186 cycles
L1D RQ	ACCESS:   22850425	FORWARD:          0	MERGED:    8200623	TO_CACHE:   14636132
L1D WQ	ACCESS:    3288968	FORWARD:      13670	MERGED:      36338	TO_CACHE:    3252630
L1D PQ	ACCESS:    2772577	FORWARD:          0	MERGED:     112240	TO_CACHE:    2660337

L1D UNIQUE REGIONS ACCESSED: 0
L1D REGIONS CONFLICTS: 0
L1D Cross Page Prefetch Requests: 437479
L1D Same Page Prefetch Requests: 3244625
L1D ROI Sum of L1D PQ occupancy: 34961836
L1D PREFETCHES PUSHED FROM L2C: 0
L1I TOTAL     ACCESS:   37934094  HIT:   37914610  MISS:      19484  HIT %:    99.9486  MISS %:  0.0513628   MPKI: 0.09742
L1I LOAD      ACCESS:   37934094  HIT:   37914610  MISS:      19484  HIT %:    99.9486  MISS %:  0.0513628   MPKI: 0.09742
L1I PREFETCH  REQUESTED:          0  ISSUED:          0  USEFUL:          0  USELESS:          0
L1I USEFUL LOAD PREFETCHES:          0 PREFETCH ISSUED TO LOWER LEVEL:          0  ACCURACY: -nan
L1I TIMELY PREFETCHES:          0 LATE PREFETCHES: 0 DROPPED PREFETCHES: 0
L1I PREFETCHES SAME FILL-ORIGIN LEVEL: 0 DIFFERENT FILL-ORIGIN LEVEL: 0
L1I AVERAGE MISS LATENCY: 139.561 cycles
L1I RQ	ACCESS:   60238049	FORWARD:          0	MERGED:   21374813	TO_CACHE:   38863236

BTB BRANCH_DIRECT_JUMP	ACCESS:          0  HIT:          0  MISS:          0
BTB BRANCH_INDIRECT	ACCESS:          0  HIT:          0  MISS:          0
BTB BRANCH_CONDITIONAL	ACCESS:          0  HIT:          0  MISS:          0
BTB BRANCH_DIRECT_CALL	ACCESS:          0  HIT:          0  MISS:          0
BTB BRANCH_INDIRECT_CALL	ACCESS:          0  HIT:          0  MISS:          0
BTB BRANCH_RETURN	ACCESS:          0  HIT:          0  MISS:          0
BTB BRANCH_OTHER ACCESS:          0  HIT:          0  MISS:          0

L2C TOTAL     ACCESS:    8086018  HIT:    6765529  MISS:    1320489  HIT %:    83.6695  MISS %:    16.3305   MPKI: 6.60244
L2C LOAD      ACCESS:    1293282  HIT:     386891  MISS:     906391  HIT %:    29.9154  MISS %:    70.0846   MPKI: 4.53195
L2C DATA LOAD MPKI: 4.45853
L2C INSTRUCTION LOAD MPKI: 0.073425
L2C RFO       ACCESS:      77304  HIT:      36419  MISS:      40885  HIT %:    47.1114  MISS %:    52.8886   MPKI: 0.204425
L2C PREFETCH  ACCESS:    1021102  HIT:     813328  MISS:     207774  HIT %:     79.652  MISS %:     20.348   MPKI: 1.03887
L2C DATA PREFETCH MPKI: 1.03887
L2C INSTRUCTION PREFETCH MPKI: 0
L2C WRITEBACK ACCESS:     102836  HIT:      96912  MISS:       5924  HIT %:    94.2394  MISS %:    5.76063   MPKI: 0.02962
L2C LOAD TRANSLATION ACCESS:    5575845  HIT:    5416539  MISS:     159306  HIT %:    97.1429  MISS %:    2.85707   MPKI: 0.79653
L2C TRANSLATION FROM L1D PREFETCHER ACCESS:      15649  HIT:      15440  MISS:        209  HIT %:    98.6645  MISS %:    1.33555   MPKI: 0.001045
L2C PREFETCH  REQUESTED:          0  ISSUED:          0  USEFUL:      79082  USELESS:     132188
L2C USEFUL LOAD PREFETCHES:      79082 PREFETCH ISSUED TO LOWER LEVEL:     211412  ACCURACY: 37.4066
L2C TIMELY PREFETCHES:      79082 LATE PREFETCHES: 571 DROPPED PREFETCHES: 0
L2C PREFETCHES SAME FILL-ORIGIN LEVEL: 163820 DIFFERENT FILL-ORIGIN LEVEL: 0
L2C AVERAGE MISS LATENCY: 70.4358 cycles
L2C RQ	ACCESS:    7137863	FORWARD:          0	MERGED:          0	TO_CACHE:    7137848
L2C WQ	ACCESS:     104068	FORWARD:         15	MERGED:          0	TO_CACHE:     104068
L2C PQ	ACCESS:    1054713	FORWARD:          0	MERGED:        240	TO_CACHE:    1054473

L2C Instructions Evicting Data 12015
L2C Translations Evicting Data 142518
L2C Data Evicting Data 1012836
L2C Instructions Evicting Instructions 978
L2C Translations Evicting Instructions 1614
L2C Data Evicting Instructions 11895
L2C Instructions Evicting Translations 1693
L2C Translations Evicting Translations 19268
L2C Data Evicting Translations 141621
L2C Dense regions hint from L2: 0
PSCL5 TOTAL     ACCESS:    5114951  HIT:    5114951  MISS:          0  HIT %:        100  MISS %:          0   MPKI: 0
PSCL5 LOAD TRANSLATION ACCESS:    5099319  HIT:    5099319  MISS:          0  HIT %:        100  MISS %:          0   MPKI: 0
PSCL5 TRANSLATION FROM L1D PREFETCHER ACCESS:      15632  HIT:      15632  MISS:          0  HIT %:        100  MISS %:          0   MPKI: 0
PSCL5 PREFETCH  REQUESTED:          0  ISSUED:          0  USEFUL:          0  USELESS:          0
PSCL5 USEFUL LOAD PREFETCHES:          0 PREFETCH ISSUED TO LOWER LEVEL:          0  ACCURACY: -nan
PSCL5 TIMELY PREFETCHES:          0 LATE PREFETCHES: 0 DROPPED PREFETCHES: 0
PSCL5 PREFETCHES SAME FILL-ORIGIN LEVEL: 0 DIFFERENT FILL-ORIGIN LEVEL: 0

PSCL4 TOTAL     ACCESS:    5114951  HIT:    5114951  MISS:          0  HIT %:        100  MISS %:          0   MPKI: 0
PSCL4 LOAD TRANSLATION ACCESS:    5099319  HIT:    5099319  MISS:          0  HIT %:        100  MISS %:          0   MPKI: 0
PSCL4 TRANSLATION FROM L1D PREFETCHER ACCESS:      15632  HIT:      15632  MISS:          0  HIT %:        100  MISS %:          0   MPKI: 0
PSCL4 PREFETCH  REQUESTED:          0  ISSUED:          0  USEFUL:          0  USELESS:          0
PSCL4 USEFUL LOAD PREFETCHES:          0 PREFETCH ISSUED TO LOWER LEVEL:          0  ACCURACY: -nan
PSCL4 TIMELY PREFETCHES:          0 LATE PREFETCHES: 0 DROPPED PREFETCHES: 0
PSCL4 PREFETCHES SAME FILL-ORIGIN LEVEL: 0 DIFFERENT FILL-ORIGIN LEVEL: 0

PSCL3 TOTAL     ACCESS:    5114478  HIT:    5114387  MISS:         91  HIT %:    99.9982  MISS %: 0.00177926   MPKI: 0.000455
PSCL3 LOAD TRANSLATION ACCESS:    5098848  HIT:    5098757  MISS:         91  HIT %:    99.9982  MISS %: 0.00178472   MPKI: 0.000455
PSCL3 TRANSLATION FROM L1D PREFETCHER ACCESS:      15630  HIT:      15630  MISS:          0  HIT %:        100  MISS %:          0   MPKI: 0
PSCL3 PREFETCH  REQUESTED:          0  ISSUED:          0  USEFUL:          0  USELESS:          0
PSCL3 USEFUL LOAD PREFETCHES:          0 PREFETCH ISSUED TO LOWER LEVEL:          0  ACCURACY: -nan
PSCL3 TIMELY PREFETCHES:          0 LATE PREFETCHES: 0 DROPPED PREFETCHES: 0
PSCL3 PREFETCHES SAME FILL-ORIGIN LEVEL: 0 DIFFERENT FILL-ORIGIN LEVEL: 0

PSCL2 TOTAL     ACCESS:    5112903  HIT:    4636445  MISS:     476458  HIT %:    90.6813  MISS %:    9.31874   MPKI: 2.38229
PSCL2 LOAD TRANSLATION ACCESS:    5099336  HIT:    4622878  MISS:     476458  HIT %:    90.6565  MISS %:    9.34353   MPKI: 2.38229
PSCL2 TRANSLATION FROM L1D PREFETCHER ACCESS:      13567  HIT:      13567  MISS:          0  HIT %:        100  MISS %:          0   MPKI: 0
PSCL2 PREFETCH  REQUESTED:          0  ISSUED:          0  USEFUL:          0  USELESS:          0
PSCL2 USEFUL LOAD PREFETCHES:          0 PREFETCH ISSUED TO LOWER LEVEL:          0  ACCURACY: -nan
PSCL2 TIMELY PREFETCHES:          0 LATE PREFETCHES: 0 DROPPED PREFETCHES: 0
PSCL2 PREFETCHES SAME FILL-ORIGIN LEVEL: 0 DIFFERENT FILL-ORIGIN LEVEL: 0

LLC TOTAL     ACCESS:    1370940  HIT:    1054258  MISS:     316682  HIT %:    76.9004  MISS %:    23.0996   MPKI: 1.58341
LLC LOAD      ACCESS:     905821  HIT:     710622  MISS:     195199  HIT %:    78.4506  MISS %:    21.5494   MPKI: 0.975995
LLC RFO       ACCESS:      40885  HIT:        887  MISS:      39998  HIT %:     2.1695  MISS %:    97.8305   MPKI: 0.19999
LLC PREFETCH  ACCESS:     208344  HIT:     145398  MISS:      62946  HIT %:    69.7875  MISS %:    30.2125   MPKI: 0.31473
LLC WRITEBACK ACCESS:      56375  HIT:      51294  MISS:       5081  HIT %:    90.9871  MISS %:    9.01286   MPKI: 0.025405
LLC LOAD TRANSLATION ACCESS:     159306  HIT:     145942  MISS:      13364  HIT %:    91.6111  MISS %:    8.38889   MPKI: 0.06682
LLC TRANSLATION FROM L1D PREFETCHER ACCESS:        209  HIT:        115  MISS:         94  HIT %:    55.0239  MISS %:    44.9761   MPKI: 0.00047
LLC PREFETCH  REQUESTED:          0  ISSUED:          0  USEFUL:      18033  USELESS:     169419
LLC USEFUL LOAD PREFETCHES:      18033 PREFETCH ISSUED TO LOWER LEVEL:     184204  ACCURACY: 9.78969
LLC TIMELY PREFETCHES:      18033 LATE PREFETCHES: 0 DROPPED PREFETCHES: 0
LLC PREFETCHES SAME FILL-ORIGIN LEVEL: 0 DIFFERENT FILL-ORIGIN LEVEL: 0
LLC AVERAGE MISS LATENCY: 628.533 cycles
LLC RQ	ACCESS:    4333173	FORWARD:          0	MERGED:          0	TO_CACHE:    4333172
LLC WQ	ACCESS:     226208	FORWARD:          1	MERGED:          0	TO_CACHE:     226208
LLC PQ	ACCESS:     887540	FORWARD:          0	MERGED:          0	TO_CACHE:     887540

LLC Dense regions hint to LLC: 0

RAW hits: 427764
Loads Generated: 22754926
Loads sent to L1D: 22327162
Stores Generated: 3223530
Stores sent to L1D: 3223530
Major fault: 0 Minor fault: 12277
Allocated PAGES: 41111

CPU 3 cumulative IPC: 0.967048 instructions: 200000001 cycles: 206815066
ITLB TOTAL     ACCESS:   28617019  HIT:   27368051  MISS:    1248968  HIT %:    95.6356  MISS %:    4.36442   MPKI: 6.24484
ITLB LOAD TRANSLATION ACCESS:   28617019  HIT:   27368051  MISS:    1248968  HIT %:    95.6356  MISS %:    4.36442   MPKI: 6.24484
ITLB PREFETCH  REQUESTED:          0  ISSUED:          0  USEFUL:          0  USELESS:          0
ITLB USEFUL LOAD PREFETCHES:          0 PREFETCH ISSUED TO LOWER LEVEL:          0  ACCURACY: -nan
ITLB TIMELY PREFETCHES:          0 LATE PREFETCHES: 0 DROPPED PREFETCHES: 0
ITLB PREFETCHES SAME FILL-ORIGIN LEVEL: 0 DIFFERENT FILL-ORIGIN LEVEL: 0
ITLB AVERAGE MISS LATENCY: 37.3328 cycles
ITLB RQ	ACCESS:   37895523	FORWARD:          0	MERGED:    8707153	TO_CACHE:   29188370

DTLB TOTAL     ACCESS:   15284390  HIT:    6668364  MISS:    8616026  HIT %:    43.6286  MISS %:    56.3714   MPKI: 43.0801
DTLB LOAD TRANSLATION ACCESS:   15284390  HIT:    6668364  MISS:    8616026  HIT %:    43.6286  MISS %:    56.3714   MPKI: 43.0801
DTLB PREFETCH  REQUESTED:          0  ISSUED:          0  USEFUL:          0  USELESS:          0
DTLB USEFUL LOAD PREFETCHES:          0 PREFETCH ISSUED TO LOWER LEVEL:          0  ACCURACY: -nan
DTLB TIMELY PREFETCHES:          0 LATE PREFETCHES: 0 DROPPED PREFETCHES: 0
DTLB PREFETCHES SAME FILL-ORIGIN LEVEL: 0 DIFFERENT FILL-ORIGIN LEVEL: 0
DTLB AVERAGE MISS LATENCY: 23.4334 cycles
DTLB RQ	ACCESS:   17023544	FORWARD:          0	MERGED:    1128040	TO_CACHE:   15895504

STLB TOTAL     ACCESS:   10452524  HIT:    5216797  MISS:    5235727  HIT %:    49.9094  MISS %:    50.0906   MPKI: 26.1786
STLB LOAD TRANSLATION ACCESS:    9864994  HIT:    4639107  MISS:    5225887  HIT %:    47.0259  MISS %:    52.9741   MPKI: 26.1294
STLB TRANSLATION FROM L1D PREFETCHER ACCESS:     587530  HIT:     577690  MISS:       9840  HIT %:    98.3252  MISS %:    1.67481   MPKI: 0.0492
STLB PREFETCH  REQUESTED:          0  ISSUED:          0  USEFUL:       6804  USELESS:       3034
STLB USEFUL LOAD PREFETCHES:       6804 PREFETCH ISSUED TO LOWER LEVEL:          0  ACCURACY: inf
STLB TIMELY PREFETCHES:       6804 LATE PREFETCHES: 0 DROPPED PREFETCHES: 802
STLB PREFETCHES SAME FILL-ORIGIN LEVEL: 0 DIFFERENT FILL-ORIGIN LEVEL: 0
STLB AVERAGE MISS LATENCY: 30.4325 cycles
STLB RQ	ACCESS:   12698445	FORWARD:          0	MERGED:    2244887	TO_CACHE:   10453558

STLB Hit, L1D data hit: 0
STLB Hit, L2C data hit: 0
STLB Hit, LLC data hit: 0
STLB Hit, LLC data miss: 0
STLB STLB hints to L2: 0
L1D TOTAL     ACCESS:   18451360  HIT:   16798118  MISS:    1653242  HIT %:      91.04  MISS %:       8.96   MPKI: 8.26621
L1D LOAD      ACCESS:   14171257  HIT:   12748137  MISS:    1423120  HIT %:    89.9577  MISS %:    10.0423   MPKI: 7.1156
L1D RFO       ACCESS:    2617192  HIT:    2521035  MISS:      96157  HIT %:    96.3259  MISS %:    3.67405   MPKI: 0.480785
L1D PREFETCH  ACCESS:    1662911  HIT:    1528946  MISS:     133965  HIT %:    91.9439  MISS %:    8.05605   MPKI: 0.669825
L1D PREFETCH  REQUESTED:    5770740  ISSUED:    5754695  USEFUL:     107709  USELESS:      26258
L1D USEFUL LOAD PREFETCHES:     107709 PREFETCH ISSUED TO LOWER LEVEL:    1297258  ACCURACY: 8.30282
L1D TIMELY PREFETCHES:     107709 LATE PREFETCHES: 83 DROPPED PREFETCHES: 1734
L1D PREFETCHES SAME FILL-ORIGIN LEVEL: 134048 DIFFERENT FILL-ORIGIN LEVEL: 1163210
L1D AVERAGE MISS LATENCY: 55.98 cycles
L1D RQ	ACCESS:   22487671	FORWARD:          0	MERGED:    8272267	TO_CACHE:   14205764
L1D WQ	ACCESS:    2844711	FORWARD:       9640	MERGED:      26931	TO_CACHE:    2817780
L1D PQ	ACCESS:    2921245	FORWARD:          0	MERGED:      87795	TO_CACHE:    2833450

L1D UNIQUE REGIONS ACCESSED: 0
L1D REGIONS CONFLICTS: 0
L1D Cross Page Prefetch Requests: 385672
L1D Same Page Prefetch Requests: 3358332
L1D ROI Sum of L1D PQ occupancy: 36559669
L1D PREFETCHES PUSHED FROM L2C: 0
L1I TOTAL     ACCESS:   37894188  HIT:   37889934  MISS:       4254  HIT %:    99.9888  MISS %:   0.011226   MPKI: 0.02127
L1I LOAD      ACCESS:   37894188  HIT:   37889934  MISS:       4254  HIT %:    99.9888  MISS %:   0.011226   MPKI: 0.02127
L1I PREFETCH  REQUESTED:          0  ISSUED:          0  USEFUL:          0  USELESS:          0
L1I USEFUL LOAD PREFETCHES:          0 PREFETCH ISSUED TO LOWER LEVEL:          0  ACCURACY: -nan
L1I TIMELY PREFETCHES:          0 LATE PREFETCHES: 0 DROPPED PREFETCHES: 0
L1I PREFETCHES SAME FILL-ORIGIN LEVEL: 0 DIFFERENT FILL-ORIGIN LEVEL: 0
L1I AVERAGE MISS LATENCY: 211.474 cycles
L1I RQ	ACCESS:   58825482	FORWARD:          0	MERGED:   20929959	TO_CACHE:   37895523

BTB BRANCH_DIRECT_JUMP	ACCESS:          0  HIT:          0  MISS:          0
BTB BRANCH_INDIRECT	ACCESS:          0  HIT:          0  MISS:          0
BTB BRANCH_CONDITIONAL	ACCESS:          0  HIT:          0  MISS:          0
BTB BRANCH_DIRECT_CALL	ACCESS:          0  HIT:          0  MISS:          0
BTB BRANCH_INDIRECT_CALL	ACCESS:          0  HIT:          0  MISS:          0
BTB BRANCH_RETURN	ACCESS:          0  HIT:          0  MISS:          0
BTB BRANCH_OTHER ACCESS:          0  HIT:          0  MISS:          0

L2C TOTAL     ACCESS:    8865894  HIT:    7341668  MISS:    1524226  HIT %:     82.808  MISS %:     17.192   MPKI: 7.62113
L2C LOAD      ACCESS:    1427279  HIT:     402820  MISS:    1024459  HIT %:    28.2229  MISS %:    71.7771   MPKI: 5.12229
L2C DATA LOAD MPKI: 5.10229
L2C INSTRUCTION LOAD MPKI: 0.020005
L2C RFO       ACCESS:      96150  HIT:      66144  MISS:      30006  HIT %:    68.7925  MISS %:    31.2075   MPKI: 0.15003
L2C PREFETCH  ACCESS:    1277286  HIT:     989349  MISS:     287937  HIT %:    77.4571  MISS %:    22.5429   MPKI: 1.43968
L2C DATA PREFETCH MPKI: 1.43968
L2C INSTRUCTION PREFETCH MPKI: 0
L2C WRITEBACK ACCESS:     122331  HIT:     118055  MISS:       4276  HIT %:    96.5046  MISS %:    3.49543   MPKI: 0.02138
L2C LOAD TRANSLATION ACCESS:    5932193  HIT:    5754992  MISS:     177201  HIT %:    97.0129  MISS %:    2.98711   MPKI: 0.886005
L2C TRANSLATION FROM L1D PREFETCHER ACCESS:      10655  HIT:      10308  MISS:        347  HIT %:    96.7433  MISS %:    3.25669   MPKI: 0.001735
L2C PREFETCH  REQUESTED:          0  ISSUED:          0  USEFUL:     131625  USELESS:     156703
L2C USEFUL LOAD PREFETCHES:     131625 PREFETCH ISSUED TO LOWER LEVEL:     288113  ACCURACY: 45.6852
L2C TIMELY PREFETCHES:     131625 LATE PREFETCHES: 176 DROPPED PREFETCHES: 0
L2C PREFETCHES SAME FILL-ORIGIN LEVEL: 256587 DIFFERENT FILL-ORIGIN LEVEL: 0
L2C AVERAGE MISS LATENCY: 60.7638 cycles
L2C RQ	ACCESS:    7466296	FORWARD:          0	MERGED:          0	TO_CACHE:    7466277
L2C WQ	ACCESS:     122331	FORWARD:         20	MERGED:          0	TO_CACHE:     122331
L2C PQ	ACCESS:    1297258	FORWARD:          0	MERGED:        142	TO_CACHE:    1297115

L2C Instructions Evicting Data 3454
L2C Translations Evicting Data 156262
L2C Data Evicting Data 1179158
L2C Instructions Evicting Instructions 139
L2C Translations Evicting Instructions 434
L2C Data Evicting Instructions 3389
L2C Instructions Evicting Translations 408
L2C Translations Evicting Translations 20852
L2C Data Evicting Translations 155853
L2C Dense regions hint from L2: 0
PSCL5 TOTAL     ACCESS:    5236530  HIT:    5236530  MISS:          0  HIT %:        100  MISS %:          0   MPKI: 0
PSCL5 LOAD TRANSLATION ACCESS:    5225888  HIT:    5225888  MISS:          0  HIT %:        100  MISS %:          0   MPKI: 0
PSCL5 TRANSLATION FROM L1D PREFETCHER ACCESS:      10642  HIT:      10642  MISS:          0  HIT %:        100  MISS %:          0   MPKI: 0
PSCL5 PREFETCH  REQUESTED:          0  ISSUED:          0  USEFUL:          0  USELESS:          0
PSCL5 USEFUL LOAD PREFETCHES:          0 PREFETCH ISSUED TO LOWER LEVEL:          0  ACCURACY: -nan
PSCL5 TIMELY PREFETCHES:          0 LATE PREFETCHES: 0 DROPPED PREFETCHES: 0
PSCL5 PREFETCHES SAME FILL-ORIGIN LEVEL: 0 DIFFERENT FILL-ORIGIN LEVEL: 0

PSCL4 TOTAL     ACCESS:    5236530  HIT:    5236530  MISS:          0  HIT %:        100  MISS %:          0   MPKI: 0
PSCL4 LOAD TRANSLATION ACCESS:    5225888  HIT:    5225888  MISS:          0  HIT %:        100  MISS %:          0   MPKI: 0
PSCL4 TRANSLATION FROM L1D PREFETCHER ACCESS:      10642  HIT:      10642  MISS:          0  HIT %:        100  MISS %:          0   MPKI: 0
PSCL4 PREFETCH  REQUESTED:          0  ISSUED:          0  USEFUL:          0  USELESS:          0
PSCL4 USEFUL LOAD PREFETCHES:          0 PREFETCH ISSUED TO LOWER LEVEL:          0  ACCURACY: -nan
PSCL4 TIMELY PREFETCHES:          0 LATE PREFETCHES: 0 DROPPED PREFETCHES: 0
PSCL4 PREFETCHES SAME FILL-ORIGIN LEVEL: 0 DIFFERENT FILL-ORIGIN LEVEL: 0

PSCL3 TOTAL     ACCESS:    5233380  HIT:    5233316  MISS:         64  HIT %:    99.9988  MISS %: 0.00122292   MPKI: 0.00032
PSCL3 LOAD TRANSLATION ACCESS:    5222742  HIT:    5222678  MISS:         64  HIT %:    99.9988  MISS %: 0.00122541   MPKI: 0.00032
PSCL3 TRANSLATION FROM L1D PREFETCHER ACCESS:      10638  HIT:      10638  MISS:          0  HIT %:        100  MISS %:          0   MPKI: 0
PSCL3 PREFETCH  REQUESTED:          0  ISSUED:          0  USEFUL:          0  USELESS:          0
PSCL3 USEFUL LOAD PREFETCHES:          0 PREFETCH ISSUED TO LOWER LEVEL:          0  ACCURACY: -nan
PSCL3 TIMELY PREFETCHES:          0 LATE PREFETCHES: 0 DROPPED PREFETCHES: 0
PSCL3 PREFETCHES SAME FILL-ORIGIN LEVEL: 0 DIFFERENT FILL-ORIGIN LEVEL: 0

PSCL2 TOTAL     ACCESS:    5236518  HIT:    4530251  MISS:     706267  HIT %:    86.5127  MISS %:    13.4873   MPKI: 3.53133
PSCL2 LOAD TRANSLATION ACCESS:    5225889  HIT:    4519622  MISS:     706267  HIT %:    86.4852  MISS %:    13.5148   MPKI: 3.53133
PSCL2 TRANSLATION FROM L1D PREFETCHER ACCESS:      10629  HIT:      10629  MISS:          0  HIT %:        100  MISS %:          0   MPKI: 0
PSCL2 PREFETCH  REQUESTED:          0  ISSUED:          0  USEFUL:          0  USELESS:          0
PSCL2 USEFUL LOAD PREFETCHES:          0 PREFETCH ISSUED TO LOWER LEVEL:          0  ACCURACY: -nan
PSCL2 TIMELY PREFETCHES:          0 LATE PREFETCHES: 0 DROPPED PREFETCHES: 0
PSCL2 PREFETCHES SAME FILL-ORIGIN LEVEL: 0 DIFFERENT FILL-ORIGIN LEVEL: 0

LLC TOTAL     ACCESS:    1552277  HIT:    1277074  MISS:     275203  HIT %:     82.271  MISS %:     17.729   MPKI: 1.37601
LLC LOAD      ACCESS:    1024283  HIT:     833262  MISS:     191021  HIT %:    81.3508  MISS %:    18.6492   MPKI: 0.955105
LLC RFO       ACCESS:      30006  HIT:       1030  MISS:      28976  HIT %:    3.43265  MISS %:    96.5674   MPKI: 0.14488
LLC PREFETCH  ACCESS:     288113  HIT:     247125  MISS:      40988  HIT %:    85.7736  MISS %:    14.2264   MPKI: 0.20494
LLC WRITEBACK ACCESS:      32327  HIT:      29305  MISS:       3022  HIT %:    90.6518  MISS %:    9.34822   MPKI: 0.01511
LLC LOAD TRANSLATION ACCESS:     177201  HIT:     166087  MISS:      11114  HIT %:     93.728  MISS %:    6.27197   MPKI: 0.05557
LLC TRANSLATION FROM L1D PREFETCHER ACCESS:        347  HIT:        265  MISS:         82  HIT %:    76.3689  MISS %:    23.6311   MPKI: 0.00041
LLC PREFETCH  REQUESTED:          0  ISSUED:          0  USEFUL:      18033  USELESS:     169419
LLC USEFUL LOAD PREFETCHES:      18033 PREFETCH ISSUED TO LOWER LEVEL:     184204  ACCURACY: 9.78969
LLC TIMELY PREFETCHES:      18033 LATE PREFETCHES: 0 DROPPED PREFETCHES: 0
LLC PREFETCHES SAME FILL-ORIGIN LEVEL: 0 DIFFERENT FILL-ORIGIN LEVEL: 0
LLC AVERAGE MISS LATENCY: 723.267 cycles
LLC RQ	ACCESS:    4333173	FORWARD:          0	MERGED:          0	TO_CACHE:    4333172
LLC WQ	ACCESS:     226208	FORWARD:          1	MERGED:          0	TO_CACHE:     226208
LLC PQ	ACCESS:     887540	FORWARD:          0	MERGED:          0	TO_CACHE:     887540

LLC Dense regions hint to LLC: 0

RAW hits: 416232
Loads Generated: 22903903
Loads sent to L1D: 22487671
Stores Generated: 2844714
Stores sent to L1D: 2844711
Major fault: 0 Minor fault: 9680
Allocated PAGES: 41111

DRAM Statistics
 CHANNEL 0
 RQ ROW_BUFFER_HIT:     218509  ROW_BUFFER_MISS:     955333
 DBUS_CONGESTED:        527
 WQ ROW_BUFFER_HIT:      53368  ROW_BUFFER_MISS:     152260  FULL:          0

 AVG_CONGESTED_CYCLE: 4
 All warmup complete: 5
Channel 0 Bank busy for read cycles: 0
Channel 0 Bank busy for write cycles: 0
Channel 0
Rank 0
0banks busy for read cycles: 86925739
0banks busy for write cycles: 76699
1banks busy for read cycles: 62389371
1banks busy for write cycles: 12813982
2banks busy for read cycles: 22473842
2banks busy for write cycles: 4011744
3banks busy for read cycles: 7844177
3banks busy for write cycles: 1705640
4banks busy for read cycles: 2824933
4banks busy for write cycles: 892330
5banks busy for read cycles: 917741
5banks busy for write cycles: 570152
6banks busy for read cycles: 393810
6banks busy for write cycles: 426281
7banks busy for read cycles: 272617
7banks busy for write cycles: 508217
8banks busy for read cycles: 438020
8banks busy for write cycles: 1329771

CPU 0 Branch Prediction Accuracy: 99.1166% MPKI: 1.1791 Average ROB Occupancy at Mispredict: 102.165
Branch types
NOT_BRANCH: 0 0%
BRANCH_DIRECT_JUMP: 0 0%
BRANCH_INDIRECT: 0 0%
BRANCH_CONDITIONAL: 0 0%
BRANCH_DIRECT_CALL: 0 0%
BRANCH_INDIRECT_CALL: 0 0%
BRANCH_RETURN: 0 0%
BRANCH_OTHER: 0 0%


CPU 1 Branch Prediction Accuracy: 99.0808% MPKI: 1.25159 Average ROB Occupancy at Mispredict: 100.104
Branch types
NOT_BRANCH: 0 0%
BRANCH_DIRECT_JUMP: 0 0%
BRANCH_INDIRECT: 0 0%
BRANCH_CONDITIONAL: 0 0%
BRANCH_DIRECT_CALL: 0 0%
BRANCH_INDIRECT_CALL: 0 0%
BRANCH_RETURN: 0 0%
BRANCH_OTHER: 0 0%


CPU 2 Branch Prediction Accuracy: 98.9693% MPKI: 1.3934 Average ROB Occupancy at Mispredict: 104.547
Branch types
NOT_BRANCH: 0 0%
BRANCH_DIRECT_JUMP: 0 0%
BRANCH_INDIRECT: 0 0%
BRANCH_CONDITIONAL: 0 0%
BRANCH_DIRECT_CALL: 0 0%
BRANCH_INDIRECT_CALL: 0 0%
BRANCH_RETURN: 0 0%
BRANCH_OTHER: 0 0%


CPU 3 Branch Prediction Accuracy: 99.0698% MPKI: 1.26965 Average ROB Occupancy at Mispredict: 122.196
Branch types
NOT_BRANCH: 0 0%
BRANCH_DIRECT_JUMP: 0 0%
BRANCH_INDIRECT: 0 0%
BRANCH_CONDITIONAL: 0 0%
BRANCH_DIRECT_CALL: 0 0%
BRANCH_INDIRECT_CALL: 0 0%
BRANCH_RETURN: 0 0%
BRANCH_OTHER: 0 0%

DRAM PAGES: 1048576
Allocated PAGES: 41111
