
*** ChampSim Multicore Out-of-Order Simulator ***

Warmup Instructions: 50000000
Simulation Instructions: 200000000
Number of CPUs: 4
LLC sets: 8192
LLC ways: 16
Off-chip DRAM Size: 4096 MB Channels: 1 Width: 64-bit Data Rate: 6400 MT/s
CPU 0 runs ./traces/ligra/ligra_PageRankDelta.com-lj.ungraph.gcc_6.3.0_O3.drop_1250M.length_250M.champsimtrace.xz
.xz
CPU 1 runs ./traces/ligra/ligra_PageRankDelta.com-lj.ungraph.gcc_6.3.0_O3.drop_1250M.length_250M.champsimtrace.xz
.xz
CPU 2 runs ./traces/ligra/ligra_PageRankDelta.com-lj.ungraph.gcc_6.3.0_O3.drop_1250M.length_250M.champsimtrace.xz
.xz
CPU 3 runs ./traces/ligra/ligra_PageRankDelta.com-lj.ungraph.gcc_6.3.0_O3.drop_1250M.length_250M.champsimtrace.xz
.xz
BTB has LRU replacement policy
ITLB has LRU replacement policy
DTLB has LRU replacement policy
STLB has LRU replacement policy
L1I has LRU replacement policy
History Sets: 8
History Ways: 16
BERTI Size: 16
BERTI Stride Size: 8
L1D has LRU replacement policy
Initialize SRRIP state for L2C
Initialize DRRIP state for LLC
BTB has LRU replacement policy
ITLB has LRU replacement policy
DTLB has LRU replacement policy
STLB has LRU replacement policy
L1I has LRU replacement policy
History Sets: 8
History Ways: 16
BERTI Size: 16
BERTI Stride Size: 8
L1D has LRU replacement policy
Initialize SRRIP state for L2C
Initialize DRRIP state for LLC
BTB has LRU replacement policy
ITLB has LRU replacement policy
DTLB has LRU replacement policy
STLB has LRU replacement policy
L1I has LRU replacement policy
History Sets: 8
History Ways: 16
BERTI Size: 16
BERTI Stride Size: 8
L1D has LRU replacement policy
Initialize SRRIP state for L2C
Initialize DRRIP state for LLC
BTB has LRU replacement policy
ITLB has LRU replacement policy
DTLB has LRU replacement policy
STLB has LRU replacement policy
L1I has LRU replacement policy
History Sets: 8
History Ways: 16
BERTI Size: 16
BERTI Stride Size: 8
L1D has LRU replacement policy
Initialize SRRIP state for L2C
Initialize DRRIP state for LLC
Heartbeat CPU 0 instructions: 10000000 cycles: 3333346 heartbeat IPC: 2.99999 cumulative IPC: 2.99999 (Simulation time: 0 hr 1 min 43 sec) 
Heartbeat CPU 1 instructions: 10000000 cycles: 3333347 heartbeat IPC: 2.99999 cumulative IPC: 2.99999 (Simulation time: 0 hr 1 min 43 sec) 
Heartbeat CPU 2 instructions: 10000000 cycles: 3333348 heartbeat IPC: 2.99999 cumulative IPC: 2.99999 (Simulation time: 0 hr 1 min 43 sec) 
Heartbeat CPU 3 instructions: 10000000 cycles: 3333349 heartbeat IPC: 2.99999 cumulative IPC: 2.99999 (Simulation time: 0 hr 1 min 43 sec) 
Heartbeat CPU 0 instructions: 20000002 cycles: 6666679 heartbeat IPC: 3 cumulative IPC: 2.99999 (Simulation time: 0 hr 3 min 27 sec) 
Heartbeat CPU 1 instructions: 20000002 cycles: 6666680 heartbeat IPC: 3 cumulative IPC: 2.99999 (Simulation time: 0 hr 3 min 27 sec) 
Heartbeat CPU 2 instructions: 20000002 cycles: 6666681 heartbeat IPC: 3 cumulative IPC: 2.99999 (Simulation time: 0 hr 3 min 27 sec) 
Heartbeat CPU 3 instructions: 20000002 cycles: 6666682 heartbeat IPC: 3 cumulative IPC: 2.99999 (Simulation time: 0 hr 3 min 27 sec) 
Heartbeat CPU 0 instructions: 30000002 cycles: 10000012 heartbeat IPC: 3 cumulative IPC: 3 (Simulation time: 0 hr 5 min 18 sec) 
Heartbeat CPU 1 instructions: 30000002 cycles: 10000013 heartbeat IPC: 3 cumulative IPC: 3 (Simulation time: 0 hr 5 min 18 sec) 
Heartbeat CPU 2 instructions: 30000002 cycles: 10000014 heartbeat IPC: 3 cumulative IPC: 3 (Simulation time: 0 hr 5 min 18 sec) 
Heartbeat CPU 3 instructions: 30000002 cycles: 10000015 heartbeat IPC: 3 cumulative IPC: 3 (Simulation time: 0 hr 5 min 18 sec) 
Heartbeat CPU 0 instructions: 40000002 cycles: 13333345 heartbeat IPC: 3 cumulative IPC: 3 (Simulation time: 0 hr 7 min 5 sec) 
Heartbeat CPU 1 instructions: 40000002 cycles: 13333346 heartbeat IPC: 3 cumulative IPC: 3 (Simulation time: 0 hr 7 min 5 sec) 
Heartbeat CPU 2 instructions: 40000002 cycles: 13333347 heartbeat IPC: 3 cumulative IPC: 3 (Simulation time: 0 hr 7 min 5 sec) 
Heartbeat CPU 3 instructions: 40000002 cycles: 13333348 heartbeat IPC: 3 cumulative IPC: 3 (Simulation time: 0 hr 7 min 5 sec) 
Heartbeat CPU 0 instructions: 50000001 cycles: 16666678 heartbeat IPC: 3 cumulative IPC: 3 (Simulation time: 0 hr 8 min 47 sec) 
Heartbeat CPU 1 instructions: 50000001 cycles: 16666679 heartbeat IPC: 3 cumulative IPC: 3 (Simulation time: 0 hr 8 min 47 sec) 
Heartbeat CPU 2 instructions: 50000001 cycles: 16666680 heartbeat IPC: 3 cumulative IPC: 3 (Simulation time: 0 hr 8 min 47 sec) 
Heartbeat CPU 3 instructions: 50000001 cycles: 16666681 heartbeat IPC: 3 cumulative IPC: 3 (Simulation time: 0 hr 8 min 47 sec) 

Warmup complete CPU 0 instructions: 50000008 cycles: 16666681 (Simulation time: 0 hr 8 min 47 sec) 
Warmup complete CPU 1 instructions: 50000007 cycles: 16666681 (Simulation time: 0 hr 8 min 47 sec) 
Warmup complete CPU 2 instructions: 50000004 cycles: 16666681 (Simulation time: 0 hr 8 min 47 sec) 
Warmup complete CPU 3 instructions: 50000001 cycles: 16666681 (Simulation time: 0 hr 8 min 47 sec) 

Heartbeat CPU 0 instructions: 60000001 cycles: 25317599 heartbeat IPC: 1.15595 cumulative IPC: 1.15595 (Simulation time: 0 hr 11 min 59 sec) 
Heartbeat CPU 1 instructions: 60000001 cycles: 25318107 heartbeat IPC: 1.15588 cumulative IPC: 1.15588 (Simulation time: 0 hr 11 min 59 sec) 
Heartbeat CPU 2 instructions: 60000001 cycles: 25318582 heartbeat IPC: 1.15582 cumulative IPC: 1.15582 (Simulation time: 0 hr 11 min 59 sec) 
Heartbeat CPU 3 instructions: 60000001 cycles: 25327248 heartbeat IPC: 1.15466 cumulative IPC: 1.15466 (Simulation time: 0 hr 11 min 59 sec) 
Heartbeat CPU 0 instructions: 70000002 cycles: 34065658 heartbeat IPC: 1.14311 cumulative IPC: 1.14949 (Simulation time: 0 hr 15 min 19 sec) 
Heartbeat CPU 1 instructions: 70000002 cycles: 34066897 heartbeat IPC: 1.14302 cumulative IPC: 1.14941 (Simulation time: 0 hr 15 min 19 sec) 
Heartbeat CPU 2 instructions: 70000002 cycles: 34071265 heartbeat IPC: 1.14251 cumulative IPC: 1.14912 (Simulation time: 0 hr 15 min 19 sec) 
Heartbeat CPU 3 instructions: 70000002 cycles: 34076821 heartbeat IPC: 1.14291 cumulative IPC: 1.14876 (Simulation time: 0 hr 15 min 19 sec) 
Heartbeat CPU 0 instructions: 80000002 cycles: 42865056 heartbeat IPC: 1.13644 cumulative IPC: 1.14511 (Simulation time: 0 hr 18 min 15 sec) 
Heartbeat CPU 1 instructions: 80000002 cycles: 42868060 heartbeat IPC: 1.13621 cumulative IPC: 1.14498 (Simulation time: 0 hr 18 min 15 sec) 
Heartbeat CPU 2 instructions: 80000002 cycles: 42872770 heartbeat IPC: 1.13617 cumulative IPC: 1.14477 (Simulation time: 0 hr 18 min 15 sec) 
Heartbeat CPU 3 instructions: 80000002 cycles: 42878826 heartbeat IPC: 1.1361 cumulative IPC: 1.14451 (Simulation time: 0 hr 18 min 15 sec) 
Heartbeat CPU 0 instructions: 90000003 cycles: 51689957 heartbeat IPC: 1.13316 cumulative IPC: 1.1421 (Simulation time: 0 hr 21 min 18 sec) 
Heartbeat CPU 1 instructions: 90000003 cycles: 51694249 heartbeat IPC: 1.13299 cumulative IPC: 1.14196 (Simulation time: 0 hr 21 min 18 sec) 
Heartbeat CPU 2 instructions: 90000003 cycles: 51700158 heartbeat IPC: 1.13284 cumulative IPC: 1.14176 (Simulation time: 0 hr 21 min 18 sec) 
Heartbeat CPU 3 instructions: 90000003 cycles: 51707351 heartbeat IPC: 1.13269 cumulative IPC: 1.14153 (Simulation time: 0 hr 21 min 18 sec) 
Heartbeat CPU 0 instructions: 100000000 cycles: 60452067 heartbeat IPC: 1.14128 cumulative IPC: 1.14193 (Simulation time: 0 hr 24 min 18 sec) 
Heartbeat CPU 1 instructions: 100000000 cycles: 60455789 heartbeat IPC: 1.14135 cumulative IPC: 1.14184 (Simulation time: 0 hr 24 min 18 sec) 
Heartbeat CPU 2 instructions: 100000000 cycles: 60464522 heartbeat IPC: 1.14098 cumulative IPC: 1.14161 (Simulation time: 0 hr 24 min 19 sec) 
Heartbeat CPU 3 instructions: 100000000 cycles: 60470927 heartbeat IPC: 1.14109 cumulative IPC: 1.14144 (Simulation time: 0 hr 24 min 19 sec) 
Heartbeat CPU 0 instructions: 110000000 cycles: 69201034 heartbeat IPC: 1.14299 cumulative IPC: 1.14211 (Simulation time: 0 hr 27 min 14 sec) 
Heartbeat CPU 1 instructions: 110000000 cycles: 69206646 heartbeat IPC: 1.14275 cumulative IPC: 1.14199 (Simulation time: 0 hr 27 min 14 sec) 
Heartbeat CPU 2 instructions: 110000000 cycles: 69214528 heartbeat IPC: 1.14286 cumulative IPC: 1.14182 (Simulation time: 0 hr 27 min 14 sec) 
Heartbeat CPU 3 instructions: 110000000 cycles: 69219884 heartbeat IPC: 1.14299 cumulative IPC: 1.1417 (Simulation time: 0 hr 27 min 15 sec) 
Heartbeat CPU 0 instructions: 120000002 cycles: 77930004 heartbeat IPC: 1.14561 cumulative IPC: 1.14261 (Simulation time: 0 hr 30 min 16 sec) 
Heartbeat CPU 1 instructions: 120000002 cycles: 77936528 heartbeat IPC: 1.14549 cumulative IPC: 1.14249 (Simulation time: 0 hr 30 min 16 sec) 
Heartbeat CPU 2 instructions: 120000002 cycles: 77944148 heartbeat IPC: 1.14553 cumulative IPC: 1.14234 (Simulation time: 0 hr 30 min 16 sec) 
Heartbeat CPU 3 instructions: 120000002 cycles: 77948733 heartbeat IPC: 1.14563 cumulative IPC: 1.14226 (Simulation time: 0 hr 30 min 16 sec) 
Heartbeat CPU 0 instructions: 130000000 cycles: 86681532 heartbeat IPC: 1.14266 cumulative IPC: 1.14261 (Simulation time: 0 hr 33 min 25 sec) 
Heartbeat CPU 1 instructions: 130000000 cycles: 86688926 heartbeat IPC: 1.14254 cumulative IPC: 1.14249 (Simulation time: 0 hr 33 min 25 sec) 
Heartbeat CPU 2 instructions: 130000000 cycles: 86695274 heartbeat IPC: 1.14271 cumulative IPC: 1.14239 (Simulation time: 0 hr 33 min 25 sec) 
Heartbeat CPU 3 instructions: 130000000 cycles: 86699735 heartbeat IPC: 1.14273 cumulative IPC: 1.14232 (Simulation time: 0 hr 33 min 25 sec) 
Heartbeat CPU 0 instructions: 140000000 cycles: 95467091 heartbeat IPC: 1.13823 cumulative IPC: 1.14213 (Simulation time: 0 hr 36 min 30 sec) 
Heartbeat CPU 1 instructions: 140000000 cycles: 95473517 heartbeat IPC: 1.13836 cumulative IPC: 1.14203 (Simulation time: 0 hr 36 min 30 sec) 
Heartbeat CPU 2 instructions: 140000000 cycles: 95480293 heartbeat IPC: 1.1383 cumulative IPC: 1.14193 (Simulation time: 0 hr 36 min 30 sec) 
Heartbeat CPU 3 instructions: 140000000 cycles: 95485379 heartbeat IPC: 1.13822 cumulative IPC: 1.14186 (Simulation time: 0 hr 36 min 30 sec) 
Heartbeat CPU 0 instructions: 150000003 cycles: 104156635 heartbeat IPC: 1.15081 cumulative IPC: 1.14299 (Simulation time: 0 hr 39 min 20 sec) 
Heartbeat CPU 1 instructions: 150000003 cycles: 104163350 heartbeat IPC: 1.15077 cumulative IPC: 1.1429 (Simulation time: 0 hr 39 min 20 sec) 
Heartbeat CPU 2 instructions: 150000003 cycles: 104168421 heartbeat IPC: 1.151 cumulative IPC: 1.14283 (Simulation time: 0 hr 39 min 21 sec) 
Heartbeat CPU 3 instructions: 150000003 cycles: 104173764 heartbeat IPC: 1.15096 cumulative IPC: 1.14276 (Simulation time: 0 hr 39 min 21 sec) 
Heartbeat CPU 0 instructions: 160000002 cycles: 112909036 heartbeat IPC: 1.14254 cumulative IPC: 1.14295 (Simulation time: 0 hr 41 min 56 sec) 
Heartbeat CPU 1 instructions: 160000002 cycles: 112915028 heartbeat IPC: 1.14264 cumulative IPC: 1.14288 (Simulation time: 0 hr 41 min 56 sec) 
Heartbeat CPU 2 instructions: 160000002 cycles: 112920814 heartbeat IPC: 1.14254 cumulative IPC: 1.14281 (Simulation time: 0 hr 41 min 56 sec) 
Heartbeat CPU 3 instructions: 160000002 cycles: 112927862 heartbeat IPC: 1.14232 cumulative IPC: 1.14272 (Simulation time: 0 hr 41 min 56 sec) 
Heartbeat CPU 0 instructions: 170000003 cycles: 121687425 heartbeat IPC: 1.13916 cumulative IPC: 1.14263 (Simulation time: 0 hr 44 min 29 sec) 
Heartbeat CPU 1 instructions: 170000003 cycles: 121693202 heartbeat IPC: 1.13919 cumulative IPC: 1.14257 (Simulation time: 0 hr 44 min 30 sec) 
Heartbeat CPU 2 instructions: 170000003 cycles: 121699817 heartbeat IPC: 1.13908 cumulative IPC: 1.1425 (Simulation time: 0 hr 44 min 30 sec) 
Heartbeat CPU 3 instructions: 170000003 cycles: 121705019 heartbeat IPC: 1.13932 cumulative IPC: 1.14244 (Simulation time: 0 hr 44 min 30 sec) 
Heartbeat CPU 0 instructions: 180000002 cycles: 130445131 heartbeat IPC: 1.14185 cumulative IPC: 1.14257 (Simulation time: 0 hr 47 min 12 sec) 
Heartbeat CPU 1 instructions: 180000002 cycles: 130451466 heartbeat IPC: 1.14178 cumulative IPC: 1.14251 (Simulation time: 0 hr 47 min 12 sec) 
Heartbeat CPU 2 instructions: 180000002 cycles: 130457138 heartbeat IPC: 1.1419 cumulative IPC: 1.14245 (Simulation time: 0 hr 47 min 12 sec) 
Heartbeat CPU 3 instructions: 180000002 cycles: 130463708 heartbeat IPC: 1.14172 cumulative IPC: 1.14238 (Simulation time: 0 hr 47 min 12 sec) 
Heartbeat CPU 0 instructions: 190000000 cycles: 139187936 heartbeat IPC: 1.1438 cumulative IPC: 1.14266 (Simulation time: 0 hr 50 min 17 sec) 
Heartbeat CPU 1 instructions: 190000000 cycles: 139195031 heartbeat IPC: 1.1437 cumulative IPC: 1.14259 (Simulation time: 0 hr 50 min 17 sec) 
Heartbeat CPU 2 instructions: 190000000 cycles: 139200029 heartbeat IPC: 1.14379 cumulative IPC: 1.14255 (Simulation time: 0 hr 50 min 17 sec) 
Heartbeat CPU 3 instructions: 190000000 cycles: 139204306 heartbeat IPC: 1.14409 cumulative IPC: 1.14251 (Simulation time: 0 hr 50 min 17 sec) 
Heartbeat CPU 0 instructions: 200000000 cycles: 147892851 heartbeat IPC: 1.14878 cumulative IPC: 1.14306 (Simulation time: 0 hr 53 min 22 sec) 
Heartbeat CPU 1 instructions: 200000000 cycles: 147899374 heartbeat IPC: 1.14885 cumulative IPC: 1.14301 (Simulation time: 0 hr 53 min 23 sec) 
Heartbeat CPU 2 instructions: 200000000 cycles: 147905477 heartbeat IPC: 1.14871 cumulative IPC: 1.14295 (Simulation time: 0 hr 53 min 23 sec) 
Heartbeat CPU 3 instructions: 200000000 cycles: 147909908 heartbeat IPC: 1.14869 cumulative IPC: 1.14292 (Simulation time: 0 hr 53 min 23 sec) 
Heartbeat CPU 0 instructions: 210000001 cycles: 156576813 heartbeat IPC: 1.15155 cumulative IPC: 1.14359 (Simulation time: 0 hr 56 min 28 sec) 
Heartbeat CPU 1 instructions: 210000001 cycles: 156582754 heartbeat IPC: 1.15163 cumulative IPC: 1.14354 (Simulation time: 0 hr 56 min 29 sec) 
Heartbeat CPU 2 instructions: 210000001 cycles: 156587986 heartbeat IPC: 1.15174 cumulative IPC: 1.1435 (Simulation time: 0 hr 56 min 29 sec) 
Heartbeat CPU 3 instructions: 210000001 cycles: 156593736 heartbeat IPC: 1.15157 cumulative IPC: 1.14345 (Simulation time: 0 hr 56 min 29 sec) 
Heartbeat CPU 0 instructions: 220000000 cycles: 165259880 heartbeat IPC: 1.15167 cumulative IPC: 1.14406 (Simulation time: 0 hr 59 min 18 sec) 
Heartbeat CPU 1 instructions: 220000000 cycles: 165265057 heartbeat IPC: 1.15177 cumulative IPC: 1.14402 (Simulation time: 0 hr 59 min 18 sec) 
Heartbeat CPU 2 instructions: 220000000 cycles: 165270476 heartbeat IPC: 1.15174 cumulative IPC: 1.14398 (Simulation time: 0 hr 59 min 18 sec) 
Heartbeat CPU 3 instructions: 220000000 cycles: 165277944 heartbeat IPC: 1.15152 cumulative IPC: 1.14392 (Simulation time: 0 hr 59 min 18 sec) 
Heartbeat CPU 0 instructions: 230000000 cycles: 173756842 heartbeat IPC: 1.17689 cumulative IPC: 1.14584 (Simulation time: 1 hr 2 min 18 sec) 
Heartbeat CPU 1 instructions: 230000000 cycles: 173763189 heartbeat IPC: 1.17673 cumulative IPC: 1.14579 (Simulation time: 1 hr 2 min 18 sec) 
Heartbeat CPU 2 instructions: 230000000 cycles: 173768584 heartbeat IPC: 1.17673 cumulative IPC: 1.14575 (Simulation time: 1 hr 2 min 18 sec) 
Heartbeat CPU 3 instructions: 230000000 cycles: 173773483 heartbeat IPC: 1.17709 cumulative IPC: 1.14572 (Simulation time: 1 hr 2 min 18 sec) 
Heartbeat CPU 0 instructions: 240000000 cycles: 182126574 heartbeat IPC: 1.19478 cumulative IPC: 1.14831 (Simulation time: 1 hr 4 min 59 sec) 
Heartbeat CPU 1 instructions: 240000000 cycles: 182132727 heartbeat IPC: 1.19481 cumulative IPC: 1.14827 (Simulation time: 1 hr 4 min 59 sec) 
Heartbeat CPU 2 instructions: 240000000 cycles: 182138010 heartbeat IPC: 1.19483 cumulative IPC: 1.14824 (Simulation time: 1 hr 5 min 0 sec) 
Heartbeat CPU 3 instructions: 240000000 cycles: 182143272 heartbeat IPC: 1.19477 cumulative IPC: 1.1482 (Simulation time: 1 hr 5 min 0 sec) 
*** Reached end of trace for Core: 0 Repeating trace: ./traces/ligra/ligra_PageRankDelta.com-lj.ungraph.gcc_6.3.0_O3.drop_1250M.length_250M.champsimtrace.xz
Heartbeat CPU 0 instructions: 250000003 cycles: 190498092 heartbeat IPC: 1.19453 cumulative IPC: 1.15054 (Simulation time: 1 hr 7 min 34 sec) 
Finished CPU 0 instructions: 200000003 cycles: 173831866 cumulative IPC: 1.15054 (Simulation time: 1 hr 7 min 34 sec) 
*** Reached end of trace for Core: 1 Repeating trace: ./traces/ligra/ligra_PageRankDelta.com-lj.ungraph.gcc_6.3.0_O3.drop_1250M.length_250M.champsimtrace.xz
Heartbeat CPU 1 instructions: 250000003 cycles: 190503486 heartbeat IPC: 1.19464 cumulative IPC: 1.1505 (Simulation time: 1 hr 7 min 34 sec) 
Finished CPU 1 instructions: 200000000 cycles: 173836808 cumulative IPC: 1.1505 (Simulation time: 1 hr 7 min 34 sec) 
*** Reached end of trace for Core: 2 Repeating trace: ./traces/ligra/ligra_PageRankDelta.com-lj.ungraph.gcc_6.3.0_O3.drop_1250M.length_250M.champsimtrace.xz
Heartbeat CPU 2 instructions: 250000001 cycles: 190509047 heartbeat IPC: 1.1946 cumulative IPC: 1.15047 (Simulation time: 1 hr 7 min 34 sec) 
Finished CPU 2 instructions: 200000001 cycles: 173842367 cumulative IPC: 1.15047 (Simulation time: 1 hr 7 min 34 sec) 
*** Reached end of trace for Core: 3 Repeating trace: ./traces/ligra/ligra_PageRankDelta.com-lj.ungraph.gcc_6.3.0_O3.drop_1250M.length_250M.champsimtrace.xz
Heartbeat CPU 3 instructions: 250000002 cycles: 190514220 heartbeat IPC: 1.19461 cumulative IPC: 1.15043 (Simulation time: 1 hr 7 min 34 sec) 
Finished CPU 3 instructions: 200000001 cycles: 173847539 cumulative IPC: 1.15043 (Simulation time: 1 hr 7 min 34 sec) 

ChampSim completed all CPUs

Total Simulation Statistics (not including warmup)

CPU 0 cumulative IPC: 1.15054 instructions: 200018191 cycles: 173847539
ITLB TOTAL     ACCESS:   33143787  HIT:   33143787  MISS:          0  HIT %:        100  MISS %:          0   MPKI: 0
ITLB LOAD      ACCESS:          0  HIT:          0  MISS:          0  HIT %:       -nan  MISS %:       -nan   MPKI: 0
ITLB RFO       ACCESS:          0  HIT:          0  MISS:          0  HIT %:       -nan  MISS %:       -nan   MPKI: 0
ITLB PREFETCH  ACCESS:          0  HIT:          0  MISS:          0  HIT %:       -nan  MISS %:       -nan   MPKI: 0
ITLB WRITEBACK ACCESS:          0  HIT:          0  MISS:          0  HIT %:       -nan  MISS %:       -nan   MPKI: 0
DTLB TOTAL     ACCESS:   18084178  HIT:   18076828  MISS:       7350  HIT %:    99.9594  MISS %:  0.0406433   MPKI: 0.0367467
DTLB LOAD      ACCESS:          0  HIT:          0  MISS:          0  HIT %:       -nan  MISS %:       -nan   MPKI: 0
DTLB RFO       ACCESS:          0  HIT:          0  MISS:          0  HIT %:       -nan  MISS %:       -nan   MPKI: 0
DTLB PREFETCH  ACCESS:          0  HIT:          0  MISS:          0  HIT %:       -nan  MISS %:       -nan   MPKI: 0
DTLB WRITEBACK ACCESS:          0  HIT:          0  MISS:          0  HIT %:       -nan  MISS %:       -nan   MPKI: 0
STLB TOTAL     ACCESS:   11297339  HIT:   11289989  MISS:       7350  HIT %:    99.9349  MISS %:  0.0650596   MPKI: 0.0367467
STLB LOAD      ACCESS:          0  HIT:          0  MISS:          0  HIT %:       -nan  MISS %:       -nan   MPKI: 0
STLB RFO       ACCESS:          0  HIT:          0  MISS:          0  HIT %:       -nan  MISS %:       -nan   MPKI: 0
STLB PREFETCH  ACCESS:          0  HIT:          0  MISS:          0  HIT %:       -nan  MISS %:       -nan   MPKI: 0
STLB WRITEBACK ACCESS:          0  HIT:          0  MISS:          0  HIT %:       -nan  MISS %:       -nan   MPKI: 0
L1D TOTAL     ACCESS:   77150331  HIT:   76680023  MISS:     470308  HIT %:    99.3904  MISS %:   0.609599   MPKI: 2.35133
L1D LOAD      ACCESS:   14659258  HIT:   14651843  MISS:       7415  HIT %:    99.9494  MISS %:  0.0505824   MPKI: 0.0370716
L1D RFO       ACCESS:    3884237  HIT:    3884237  MISS:          0  HIT %:        100  MISS %:          0   MPKI: 0
L1D PREFETCH  ACCESS:   58606836  HIT:   58143943  MISS:     462893  HIT %:    99.2102  MISS %:   0.789828   MPKI: 2.31425
L1D WRITEBACK ACCESS:          0  HIT:          0  MISS:          0  HIT %:       -nan  MISS %:       -nan   MPKI: 0
L1I TOTAL     ACCESS:   33143786  HIT:   33143786  MISS:          0  HIT %:        100  MISS %:          0   MPKI: 0
L1I LOAD      ACCESS:   33143786  HIT:   33143786  MISS:          0  HIT %:        100  MISS %:          0   MPKI: 0
L1I RFO       ACCESS:          0  HIT:          0  MISS:          0  HIT %:       -nan  MISS %:       -nan   MPKI: 0
L1I PREFETCH  ACCESS:          0  HIT:          0  MISS:          0  HIT %:       -nan  MISS %:       -nan   MPKI: 0
L1I WRITEBACK ACCESS:          0  HIT:          0  MISS:          0  HIT %:       -nan  MISS %:       -nan   MPKI: 0
L2C TOTAL     ACCESS:    3120357  HIT:    2438496  MISS:     681861  HIT %:     78.148  MISS %:     21.852   MPKI: 3.40899
L2C LOAD      ACCESS:       3347  HIT:          0  MISS:       3347  HIT %:          0  MISS %:        100   MPKI: 0.0167335
L2C RFO       ACCESS:          0  HIT:          0  MISS:          0  HIT %:       -nan  MISS %:       -nan   MPKI: 0
L2C PREFETCH  ACCESS:    1588410  HIT:    1121442  MISS:     466968  HIT %:    70.6015  MISS %:    29.3985   MPKI: 2.33463
L2C WRITEBACK ACCESS:     470308  HIT:     259696  MISS:     210612  HIT %:    55.2183  MISS %:    44.7817   MPKI: 1.05296
PSCL5 TOTAL     ACCESS:    1058292  HIT:    1058292  MISS:          0  HIT %:        100  MISS %:          0   MPKI: 0
PSCL5 LOAD      ACCESS:          0  HIT:          0  MISS:          0  HIT %:       -nan  MISS %:       -nan   MPKI: 0
PSCL5 RFO       ACCESS:          0  HIT:          0  MISS:          0  HIT %:       -nan  MISS %:       -nan   MPKI: 0
PSCL5 PREFETCH  ACCESS:          0  HIT:          0  MISS:          0  HIT %:       -nan  MISS %:       -nan   MPKI: 0
PSCL5 WRITEBACK ACCESS:          0  HIT:          0  MISS:          0  HIT %:       -nan  MISS %:       -nan   MPKI: 0
PSCL4 TOTAL     ACCESS:    1058292  HIT:    1058292  MISS:          0  HIT %:        100  MISS %:          0   MPKI: 0
PSCL4 LOAD      ACCESS:          0  HIT:          0  MISS:          0  HIT %:       -nan  MISS %:       -nan   MPKI: 0
PSCL4 RFO       ACCESS:          0  HIT:          0  MISS:          0  HIT %:       -nan  MISS %:       -nan   MPKI: 0
PSCL4 PREFETCH  ACCESS:          0  HIT:          0  MISS:          0  HIT %:       -nan  MISS %:       -nan   MPKI: 0
PSCL4 WRITEBACK ACCESS:          0  HIT:          0  MISS:          0  HIT %:       -nan  MISS %:       -nan   MPKI: 0
PSCL3 TOTAL     ACCESS:    1058292  HIT:    1058292  MISS:          0  HIT %:        100  MISS %:          0   MPKI: 0
PSCL3 LOAD      ACCESS:          0  HIT:          0  MISS:          0  HIT %:       -nan  MISS %:       -nan   MPKI: 0
PSCL3 RFO       ACCESS:          0  HIT:          0  MISS:          0  HIT %:       -nan  MISS %:       -nan   MPKI: 0
PSCL3 PREFETCH  ACCESS:          0  HIT:          0  MISS:          0  HIT %:       -nan  MISS %:       -nan   MPKI: 0
PSCL3 WRITEBACK ACCESS:          0  HIT:          0  MISS:          0  HIT %:       -nan  MISS %:       -nan   MPKI: 0
PSCL2 TOTAL     ACCESS:    1056338  HIT:    1056324  MISS:         14  HIT %:    99.9987  MISS %: 0.00132533   MPKI: 6.99936e-05
PSCL2 LOAD      ACCESS:          0  HIT:          0  MISS:          0  HIT %:       -nan  MISS %:       -nan   MPKI: 0
PSCL2 RFO       ACCESS:          0  HIT:          0  MISS:          0  HIT %:       -nan  MISS %:       -nan   MPKI: 0
PSCL2 PREFETCH  ACCESS:          0  HIT:          0  MISS:          0  HIT %:       -nan  MISS %:       -nan   MPKI: 0
PSCL2 WRITEBACK ACCESS:          0  HIT:          0  MISS:          0  HIT %:       -nan  MISS %:       -nan   MPKI: 0
LLC TOTAL     ACCESS:     941615  HIT:     423524  MISS:     518091  HIT %:    44.9785  MISS %:    55.0215   MPKI: 2.59022
LLC LOAD      ACCESS:       3347  HIT:          0  MISS:       3347  HIT %:          0  MISS %:        100   MPKI: 0.0167335
LLC RFO       ACCESS:          0  HIT:          0  MISS:          0  HIT %:       -nan  MISS %:       -nan   MPKI: 0
LLC PREFETCH  ACCESS:     466968  HIT:          0  MISS:     466968  HIT %:          0  MISS %:        100   MPKI: 2.33463
LLC WRITEBACK ACCESS:     470366  HIT:     423521  MISS:      46845  HIT %:    90.0407  MISS %:    9.95927   MPKI: 0.234204

RAW hits: 0
Loads Generated: 30099501
Loads sent to L1D: 30099501
Stores Generated: 3884236
Stores sent to L1D: 3884237

CPU 1 cumulative IPC: 1.1505 instructions: 200011983 cycles: 173847539
ITLB TOTAL     ACCESS:   33142795  HIT:   33142795  MISS:          0  HIT %:        100  MISS %:          0   MPKI: 0
ITLB LOAD      ACCESS:          0  HIT:          0  MISS:          0  HIT %:       -nan  MISS %:       -nan   MPKI: 0
ITLB RFO       ACCESS:          0  HIT:          0  MISS:          0  HIT %:       -nan  MISS %:       -nan   MPKI: 0
ITLB PREFETCH  ACCESS:          0  HIT:          0  MISS:          0  HIT %:       -nan  MISS %:       -nan   MPKI: 0
ITLB WRITEBACK ACCESS:          0  HIT:          0  MISS:          0  HIT %:       -nan  MISS %:       -nan   MPKI: 0
DTLB TOTAL     ACCESS:   18082884  HIT:   18075534  MISS:       7350  HIT %:    99.9594  MISS %:  0.0406462   MPKI: 0.0367478
DTLB LOAD      ACCESS:          0  HIT:          0  MISS:          0  HIT %:       -nan  MISS %:       -nan   MPKI: 0
DTLB RFO       ACCESS:          0  HIT:          0  MISS:          0  HIT %:       -nan  MISS %:       -nan   MPKI: 0
DTLB PREFETCH  ACCESS:          0  HIT:          0  MISS:          0  HIT %:       -nan  MISS %:       -nan   MPKI: 0
DTLB WRITEBACK ACCESS:          0  HIT:          0  MISS:          0  HIT %:       -nan  MISS %:       -nan   MPKI: 0
STLB TOTAL     ACCESS:   11297257  HIT:   11289907  MISS:       7350  HIT %:    99.9349  MISS %:    0.06506   MPKI: 0.0367478
STLB LOAD      ACCESS:          0  HIT:          0  MISS:          0  HIT %:       -nan  MISS %:       -nan   MPKI: 0
STLB RFO       ACCESS:          0  HIT:          0  MISS:          0  HIT %:       -nan  MISS %:       -nan   MPKI: 0
STLB PREFETCH  ACCESS:          0  HIT:          0  MISS:          0  HIT %:       -nan  MISS %:       -nan   MPKI: 0
STLB WRITEBACK ACCESS:          0  HIT:          0  MISS:          0  HIT %:       -nan  MISS %:       -nan   MPKI: 0
L1D TOTAL     ACCESS:   77173428  HIT:   76703139  MISS:     470289  HIT %:    99.3906  MISS %:   0.609392   MPKI: 2.3513
L1D LOAD      ACCESS:   14658196  HIT:   14650766  MISS:       7430  HIT %:    99.9493  MISS %:  0.0506884   MPKI: 0.0371478
L1D RFO       ACCESS:    3884116  HIT:    3884116  MISS:          0  HIT %:        100  MISS %:          0   MPKI: 0
L1D PREFETCH  ACCESS:   58631116  HIT:   58168257  MISS:     462859  HIT %:    99.2106  MISS %:   0.789443   MPKI: 2.31416
L1D WRITEBACK ACCESS:          0  HIT:          0  MISS:          0  HIT %:       -nan  MISS %:       -nan   MPKI: 0
L1I TOTAL     ACCESS:   33142795  HIT:   33142795  MISS:          0  HIT %:        100  MISS %:          0   MPKI: 0
L1I LOAD      ACCESS:   33142795  HIT:   33142795  MISS:          0  HIT %:        100  MISS %:          0   MPKI: 0
L1I RFO       ACCESS:          0  HIT:          0  MISS:          0  HIT %:       -nan  MISS %:       -nan   MPKI: 0
L1I PREFETCH  ACCESS:          0  HIT:          0  MISS:          0  HIT %:       -nan  MISS %:       -nan   MPKI: 0
L1I WRITEBACK ACCESS:          0  HIT:          0  MISS:          0  HIT %:       -nan  MISS %:       -nan   MPKI: 0
L2C TOTAL     ACCESS:    3118898  HIT:    2440332  MISS:     678566  HIT %:    78.2434  MISS %:    21.7566   MPKI: 3.39263
L2C LOAD      ACCESS:       3348  HIT:          0  MISS:       3348  HIT %:          0  MISS %:        100   MPKI: 0.016739
L2C RFO       ACCESS:          0  HIT:          0  MISS:          0  HIT %:       -nan  MISS %:       -nan   MPKI: 0
L2C PREFETCH  ACCESS:    1589043  HIT:    1122099  MISS:     466944  HIT %:    70.6148  MISS %:    29.3852   MPKI: 2.33458
L2C WRITEBACK ACCESS:     470289  HIT:     262945  MISS:     207344  HIT %:    55.9114  MISS %:    44.0886   MPKI: 1.03666
PSCL5 TOTAL     ACCESS:    1056218  HIT:    1056218  MISS:          0  HIT %:        100  MISS %:          0   MPKI: 0
PSCL5 LOAD      ACCESS:          0  HIT:          0  MISS:          0  HIT %:       -nan  MISS %:       -nan   MPKI: 0
PSCL5 RFO       ACCESS:          0  HIT:          0  MISS:          0  HIT %:       -nan  MISS %:       -nan   MPKI: 0
PSCL5 PREFETCH  ACCESS:          0  HIT:          0  MISS:          0  HIT %:       -nan  MISS %:       -nan   MPKI: 0
PSCL5 WRITEBACK ACCESS:          0  HIT:          0  MISS:          0  HIT %:       -nan  MISS %:       -nan   MPKI: 0
PSCL4 TOTAL     ACCESS:    1056218  HIT:    1056218  MISS:          0  HIT %:        100  MISS %:          0   MPKI: 0
PSCL4 LOAD      ACCESS:          0  HIT:          0  MISS:          0  HIT %:       -nan  MISS %:       -nan   MPKI: 0
PSCL4 RFO       ACCESS:          0  HIT:          0  MISS:          0  HIT %:       -nan  MISS %:       -nan   MPKI: 0
PSCL4 PREFETCH  ACCESS:          0  HIT:          0  MISS:          0  HIT %:       -nan  MISS %:       -nan   MPKI: 0
PSCL4 WRITEBACK ACCESS:          0  HIT:          0  MISS:          0  HIT %:       -nan  MISS %:       -nan   MPKI: 0
PSCL3 TOTAL     ACCESS:    1056218  HIT:    1056218  MISS:          0  HIT %:        100  MISS %:          0   MPKI: 0
PSCL3 LOAD      ACCESS:          0  HIT:          0  MISS:          0  HIT %:       -nan  MISS %:       -nan   MPKI: 0
PSCL3 RFO       ACCESS:          0  HIT:          0  MISS:          0  HIT %:       -nan  MISS %:       -nan   MPKI: 0
PSCL3 PREFETCH  ACCESS:          0  HIT:          0  MISS:          0  HIT %:       -nan  MISS %:       -nan   MPKI: 0
PSCL3 WRITEBACK ACCESS:          0  HIT:          0  MISS:          0  HIT %:       -nan  MISS %:       -nan   MPKI: 0
PSCL2 TOTAL     ACCESS:    1054168  HIT:    1054154  MISS:         14  HIT %:    99.9987  MISS %: 0.00132806   MPKI: 6.99958e-05
PSCL2 LOAD      ACCESS:          0  HIT:          0  MISS:          0  HIT %:       -nan  MISS %:       -nan   MPKI: 0
PSCL2 RFO       ACCESS:          0  HIT:          0  MISS:          0  HIT %:       -nan  MISS %:       -nan   MPKI: 0
PSCL2 PREFETCH  ACCESS:          0  HIT:          0  MISS:          0  HIT %:       -nan  MISS %:       -nan   MPKI: 0
PSCL2 WRITEBACK ACCESS:          0  HIT:          0  MISS:          0  HIT %:       -nan  MISS %:       -nan   MPKI: 0
LLC TOTAL     ACCESS:     941369  HIT:     423377  MISS:     517992  HIT %:    44.9746  MISS %:    55.0254   MPKI: 2.5898
LLC LOAD      ACCESS:       3348  HIT:          0  MISS:       3348  HIT %:          0  MISS %:        100   MPKI: 0.016739
LLC RFO       ACCESS:          0  HIT:          0  MISS:          0  HIT %:       -nan  MISS %:       -nan   MPKI: 0
LLC PREFETCH  ACCESS:     466944  HIT:          0  MISS:     466944  HIT %:          0  MISS %:        100   MPKI: 2.33458
LLC WRITEBACK ACCESS:     470147  HIT:     423375  MISS:      46772  HIT %:    90.0516  MISS %:    9.94838   MPKI: 0.233846

RAW hits: 0
Loads Generated: 30098568
Loads sent to L1D: 30098567
Stores Generated: 3884115
Stores sent to L1D: 3884116

CPU 2 cumulative IPC: 1.15047 instructions: 200005532 cycles: 173847539
ITLB TOTAL     ACCESS:   33141734  HIT:   33141734  MISS:          0  HIT %:        100  MISS %:          0   MPKI: 0
ITLB LOAD      ACCESS:          0  HIT:          0  MISS:          0  HIT %:       -nan  MISS %:       -nan   MPKI: 0
ITLB RFO       ACCESS:          0  HIT:          0  MISS:          0  HIT %:       -nan  MISS %:       -nan   MPKI: 0
ITLB PREFETCH  ACCESS:          0  HIT:          0  MISS:          0  HIT %:       -nan  MISS %:       -nan   MPKI: 0
ITLB WRITEBACK ACCESS:          0  HIT:          0  MISS:          0  HIT %:       -nan  MISS %:       -nan   MPKI: 0
DTLB TOTAL     ACCESS:   18082781  HIT:   18075432  MISS:       7349  HIT %:    99.9594  MISS %:  0.0406409   MPKI: 0.036744
DTLB LOAD      ACCESS:          0  HIT:          0  MISS:          0  HIT %:       -nan  MISS %:       -nan   MPKI: 0
DTLB RFO       ACCESS:          0  HIT:          0  MISS:          0  HIT %:       -nan  MISS %:       -nan   MPKI: 0
DTLB PREFETCH  ACCESS:          0  HIT:          0  MISS:          0  HIT %:       -nan  MISS %:       -nan   MPKI: 0
DTLB WRITEBACK ACCESS:          0  HIT:          0  MISS:          0  HIT %:       -nan  MISS %:       -nan   MPKI: 0
STLB TOTAL     ACCESS:   11297371  HIT:   11290021  MISS:       7350  HIT %:    99.9349  MISS %:  0.0650594   MPKI: 0.036749
STLB LOAD      ACCESS:          0  HIT:          0  MISS:          0  HIT %:       -nan  MISS %:       -nan   MPKI: 0
STLB RFO       ACCESS:          0  HIT:          0  MISS:          0  HIT %:       -nan  MISS %:       -nan   MPKI: 0
STLB PREFETCH  ACCESS:          0  HIT:          0  MISS:          0  HIT %:       -nan  MISS %:       -nan   MPKI: 0
STLB WRITEBACK ACCESS:          0  HIT:          0  MISS:          0  HIT %:       -nan  MISS %:       -nan   MPKI: 0
L1D TOTAL     ACCESS:   77190308  HIT:   76720022  MISS:     470286  HIT %:    99.3907  MISS %:   0.609255   MPKI: 2.35136
L1D LOAD      ACCESS:   14658268  HIT:   14650823  MISS:       7445  HIT %:    99.9492  MISS %:  0.0507904   MPKI: 0.037224
L1D RFO       ACCESS:    3883991  HIT:    3883991  MISS:          0  HIT %:        100  MISS %:          0   MPKI: 0
L1D PREFETCH  ACCESS:   58648049  HIT:   58185208  MISS:     462841  HIT %:    99.2108  MISS %:   0.789184   MPKI: 2.31414
L1D WRITEBACK ACCESS:          0  HIT:          0  MISS:          0  HIT %:       -nan  MISS %:       -nan   MPKI: 0
L1I TOTAL     ACCESS:   33141734  HIT:   33141734  MISS:          0  HIT %:        100  MISS %:          0   MPKI: 0
L1I LOAD      ACCESS:   33141734  HIT:   33141734  MISS:          0  HIT %:        100  MISS %:          0   MPKI: 0
L1I RFO       ACCESS:          0  HIT:          0  MISS:          0  HIT %:       -nan  MISS %:       -nan   MPKI: 0
L1I PREFETCH  ACCESS:          0  HIT:          0  MISS:          0  HIT %:       -nan  MISS %:       -nan   MPKI: 0
L1I WRITEBACK ACCESS:          0  HIT:          0  MISS:          0  HIT %:       -nan  MISS %:       -nan   MPKI: 0
L2C TOTAL     ACCESS:    3110703  HIT:    2430504  MISS:     680199  HIT %:    78.1336  MISS %:    21.8664   MPKI: 3.4009
L2C LOAD      ACCESS:       3351  HIT:          0  MISS:       3351  HIT %:          0  MISS %:        100   MPKI: 0.0167545
L2C RFO       ACCESS:          0  HIT:          0  MISS:          0  HIT %:       -nan  MISS %:       -nan   MPKI: 0
L2C PREFETCH  ACCESS:    1579692  HIT:    1112757  MISS:     466935  HIT %:    70.4414  MISS %:    29.5586   MPKI: 2.33461
L2C WRITEBACK ACCESS:     470286  HIT:     261307  MISS:     208979  HIT %:    55.5634  MISS %:    44.4366   MPKI: 1.04487
PSCL5 TOTAL     ACCESS:    1057374  HIT:    1057374  MISS:          0  HIT %:        100  MISS %:          0   MPKI: 0
PSCL5 LOAD      ACCESS:          0  HIT:          0  MISS:          0  HIT %:       -nan  MISS %:       -nan   MPKI: 0
PSCL5 RFO       ACCESS:          0  HIT:          0  MISS:          0  HIT %:       -nan  MISS %:       -nan   MPKI: 0
PSCL5 PREFETCH  ACCESS:          0  HIT:          0  MISS:          0  HIT %:       -nan  MISS %:       -nan   MPKI: 0
PSCL5 WRITEBACK ACCESS:          0  HIT:          0  MISS:          0  HIT %:       -nan  MISS %:       -nan   MPKI: 0
PSCL4 TOTAL     ACCESS:    1057374  HIT:    1057374  MISS:          0  HIT %:        100  MISS %:          0   MPKI: 0
PSCL4 LOAD      ACCESS:          0  HIT:          0  MISS:          0  HIT %:       -nan  MISS %:       -nan   MPKI: 0
PSCL4 RFO       ACCESS:          0  HIT:          0  MISS:          0  HIT %:       -nan  MISS %:       -nan   MPKI: 0
PSCL4 PREFETCH  ACCESS:          0  HIT:          0  MISS:          0  HIT %:       -nan  MISS %:       -nan   MPKI: 0
PSCL4 WRITEBACK ACCESS:          0  HIT:          0  MISS:          0  HIT %:       -nan  MISS %:       -nan   MPKI: 0
PSCL3 TOTAL     ACCESS:    1057374  HIT:    1057374  MISS:          0  HIT %:        100  MISS %:          0   MPKI: 0
PSCL3 LOAD      ACCESS:          0  HIT:          0  MISS:          0  HIT %:       -nan  MISS %:       -nan   MPKI: 0
PSCL3 RFO       ACCESS:          0  HIT:          0  MISS:          0  HIT %:       -nan  MISS %:       -nan   MPKI: 0
PSCL3 PREFETCH  ACCESS:          0  HIT:          0  MISS:          0  HIT %:       -nan  MISS %:       -nan   MPKI: 0
PSCL3 WRITEBACK ACCESS:          0  HIT:          0  MISS:          0  HIT %:       -nan  MISS %:       -nan   MPKI: 0
PSCL2 TOTAL     ACCESS:    1055462  HIT:    1055448  MISS:         14  HIT %:    99.9987  MISS %: 0.00132643   MPKI: 6.99981e-05
PSCL2 LOAD      ACCESS:          0  HIT:          0  MISS:          0  HIT %:       -nan  MISS %:       -nan   MPKI: 0
PSCL2 RFO       ACCESS:          0  HIT:          0  MISS:          0  HIT %:       -nan  MISS %:       -nan   MPKI: 0
PSCL2 PREFETCH  ACCESS:          0  HIT:          0  MISS:          0  HIT %:       -nan  MISS %:       -nan   MPKI: 0
PSCL2 WRITEBACK ACCESS:          0  HIT:          0  MISS:          0  HIT %:       -nan  MISS %:       -nan   MPKI: 0
LLC TOTAL     ACCESS:     941495  HIT:     423471  MISS:     518024  HIT %:    44.9786  MISS %:    55.0214   MPKI: 2.59005
LLC LOAD      ACCESS:       3351  HIT:          0  MISS:       3351  HIT %:          0  MISS %:        100   MPKI: 0.0167545
LLC RFO       ACCESS:          0  HIT:          0  MISS:          0  HIT %:       -nan  MISS %:       -nan   MPKI: 0
LLC PREFETCH  ACCESS:     466935  HIT:          0  MISS:     466935  HIT %:          0  MISS %:        100   MPKI: 2.33461
LLC WRITEBACK ACCESS:     470275  HIT:     423471  MISS:      46804  HIT %:    90.0475  MISS %:    9.95247   MPKI: 0.234014

RAW hits: 0
Loads Generated: 30097596
Loads sent to L1D: 30097596
Stores Generated: 3883990
Stores sent to L1D: 3883991

CPU 3 cumulative IPC: 1.15043 instructions: 200000001 cycles: 173847539
ITLB TOTAL     ACCESS:   33140790  HIT:   33140790  MISS:          0  HIT %:        100  MISS %:          0   MPKI: 0
ITLB LOAD      ACCESS:          0  HIT:          0  MISS:          0  HIT %:       -nan  MISS %:       -nan   MPKI: 0
ITLB RFO       ACCESS:          0  HIT:          0  MISS:          0  HIT %:       -nan  MISS %:       -nan   MPKI: 0
ITLB PREFETCH  ACCESS:          0  HIT:          0  MISS:          0  HIT %:       -nan  MISS %:       -nan   MPKI: 0
ITLB WRITEBACK ACCESS:          0  HIT:          0  MISS:          0  HIT %:       -nan  MISS %:       -nan   MPKI: 0
DTLB TOTAL     ACCESS:   18081598  HIT:   18074250  MISS:       7348  HIT %:    99.9594  MISS %:   0.040638   MPKI: 0.03674
DTLB LOAD      ACCESS:          0  HIT:          0  MISS:          0  HIT %:       -nan  MISS %:       -nan   MPKI: 0
DTLB RFO       ACCESS:          0  HIT:          0  MISS:          0  HIT %:       -nan  MISS %:       -nan   MPKI: 0
DTLB PREFETCH  ACCESS:          0  HIT:          0  MISS:          0  HIT %:       -nan  MISS %:       -nan   MPKI: 0
DTLB WRITEBACK ACCESS:          0  HIT:          0  MISS:          0  HIT %:       -nan  MISS %:       -nan   MPKI: 0
STLB TOTAL     ACCESS:   11295899  HIT:   11288551  MISS:       7348  HIT %:    99.9349  MISS %:  0.0650502   MPKI: 0.03674
STLB LOAD      ACCESS:          0  HIT:          0  MISS:          0  HIT %:       -nan  MISS %:       -nan   MPKI: 0
STLB RFO       ACCESS:          0  HIT:          0  MISS:          0  HIT %:       -nan  MISS %:       -nan   MPKI: 0
STLB PREFETCH  ACCESS:          0  HIT:          0  MISS:          0  HIT %:       -nan  MISS %:       -nan   MPKI: 0
STLB WRITEBACK ACCESS:          0  HIT:          0  MISS:          0  HIT %:       -nan  MISS %:       -nan   MPKI: 0
L1D TOTAL     ACCESS:   77172127  HIT:   76701871  MISS:     470256  HIT %:    99.3906  MISS %:    0.60936   MPKI: 2.35128
L1D LOAD      ACCESS:   14657221  HIT:   14649819  MISS:       7402  HIT %:    99.9495  MISS %:  0.0505007   MPKI: 0.03701
L1D RFO       ACCESS:    3883881  HIT:    3883881  MISS:          0  HIT %:        100  MISS %:          0   MPKI: 0
L1D PREFETCH  ACCESS:   58631025  HIT:   58168171  MISS:     462854  HIT %:    99.2106  MISS %:   0.789435   MPKI: 2.31427
L1D WRITEBACK ACCESS:          0  HIT:          0  MISS:          0  HIT %:       -nan  MISS %:       -nan   MPKI: 0
L1I TOTAL     ACCESS:   33140790  HIT:   33140790  MISS:          0  HIT %:        100  MISS %:          0   MPKI: 0
L1I LOAD      ACCESS:   33140790  HIT:   33140790  MISS:          0  HIT %:        100  MISS %:          0   MPKI: 0
L1I RFO       ACCESS:          0  HIT:          0  MISS:          0  HIT %:       -nan  MISS %:       -nan   MPKI: 0
L1I PREFETCH  ACCESS:          0  HIT:          0  MISS:          0  HIT %:       -nan  MISS %:       -nan   MPKI: 0
L1I WRITEBACK ACCESS:          0  HIT:          0  MISS:          0  HIT %:       -nan  MISS %:       -nan   MPKI: 0
L2C TOTAL     ACCESS:    3104474  HIT:    2424043  MISS:     680431  HIT %:    78.0822  MISS %:    21.9178   MPKI: 3.40215
L2C LOAD      ACCESS:       3346  HIT:          0  MISS:       3346  HIT %:          0  MISS %:        100   MPKI: 0.01673
L2C RFO       ACCESS:          0  HIT:          0  MISS:          0  HIT %:       -nan  MISS %:       -nan   MPKI: 0
L2C PREFETCH  ACCESS:    1572801  HIT:    1105891  MISS:     466910  HIT %:    70.3135  MISS %:    29.6865   MPKI: 2.33455
L2C WRITEBACK ACCESS:     470255  HIT:     261012  MISS:     209243  HIT %:    55.5044  MISS %:    44.4956   MPKI: 1.04621
PSCL5 TOTAL     ACCESS:    1058072  HIT:    1058072  MISS:          0  HIT %:        100  MISS %:          0   MPKI: 0
PSCL5 LOAD      ACCESS:          0  HIT:          0  MISS:          0  HIT %:       -nan  MISS %:       -nan   MPKI: 0
PSCL5 RFO       ACCESS:          0  HIT:          0  MISS:          0  HIT %:       -nan  MISS %:       -nan   MPKI: 0
PSCL5 PREFETCH  ACCESS:          0  HIT:          0  MISS:          0  HIT %:       -nan  MISS %:       -nan   MPKI: 0
PSCL5 WRITEBACK ACCESS:          0  HIT:          0  MISS:          0  HIT %:       -nan  MISS %:       -nan   MPKI: 0
PSCL4 TOTAL     ACCESS:    1058072  HIT:    1058072  MISS:          0  HIT %:        100  MISS %:          0   MPKI: 0
PSCL4 LOAD      ACCESS:          0  HIT:          0  MISS:          0  HIT %:       -nan  MISS %:       -nan   MPKI: 0
PSCL4 RFO       ACCESS:          0  HIT:          0  MISS:          0  HIT %:       -nan  MISS %:       -nan   MPKI: 0
PSCL4 PREFETCH  ACCESS:          0  HIT:          0  MISS:          0  HIT %:       -nan  MISS %:       -nan   MPKI: 0
PSCL4 WRITEBACK ACCESS:          0  HIT:          0  MISS:          0  HIT %:       -nan  MISS %:       -nan   MPKI: 0
PSCL3 TOTAL     ACCESS:    1058072  HIT:    1058072  MISS:          0  HIT %:        100  MISS %:          0   MPKI: 0
PSCL3 LOAD      ACCESS:          0  HIT:          0  MISS:          0  HIT %:       -nan  MISS %:       -nan   MPKI: 0
PSCL3 RFO       ACCESS:          0  HIT:          0  MISS:          0  HIT %:       -nan  MISS %:       -nan   MPKI: 0
PSCL3 PREFETCH  ACCESS:          0  HIT:          0  MISS:          0  HIT %:       -nan  MISS %:       -nan   MPKI: 0
PSCL3 WRITEBACK ACCESS:          0  HIT:          0  MISS:          0  HIT %:       -nan  MISS %:       -nan   MPKI: 0
PSCL2 TOTAL     ACCESS:    1056140  HIT:    1056126  MISS:         14  HIT %:    99.9987  MISS %: 0.00132558   MPKI: 7e-05
PSCL2 LOAD      ACCESS:          0  HIT:          0  MISS:          0  HIT %:       -nan  MISS %:       -nan   MPKI: 0
PSCL2 RFO       ACCESS:          0  HIT:          0  MISS:          0  HIT %:       -nan  MISS %:       -nan   MPKI: 0
PSCL2 PREFETCH  ACCESS:          0  HIT:          0  MISS:          0  HIT %:       -nan  MISS %:       -nan   MPKI: 0
PSCL2 WRITEBACK ACCESS:          0  HIT:          0  MISS:          0  HIT %:       -nan  MISS %:       -nan   MPKI: 0
LLC TOTAL     ACCESS:     941294  HIT:     422855  MISS:     518439  HIT %:    44.9227  MISS %:    55.0773   MPKI: 2.59219
LLC LOAD      ACCESS:       3346  HIT:          0  MISS:       3346  HIT %:          0  MISS %:        100   MPKI: 0.01673
LLC RFO       ACCESS:          0  HIT:          0  MISS:          0  HIT %:       -nan  MISS %:       -nan   MPKI: 0
LLC PREFETCH  ACCESS:     466910  HIT:          0  MISS:     466910  HIT %:          0  MISS %:        100   MPKI: 2.33455
LLC WRITEBACK ACCESS:     470106  HIT:     422855  MISS:      47251  HIT %:    89.9489  MISS %:    10.0511   MPKI: 0.236255

RAW hits: 0
Loads Generated: 30096765
Loads sent to L1D: 30096765
Stores Generated: 3883880
Stores sent to L1D: 3883881

Region of Interest Statistics

CPU 0 cumulative IPC: 1.15054 instructions: 200000003 cycles: 173831866
ITLB TOTAL     ACCESS:   33140834  HIT:   33140834  MISS:          0  HIT %:        100  MISS %:          0   MPKI: 0
ITLB LOAD TRANSLATION ACCESS:   33140834  HIT:   33140834  MISS:          0  HIT %:        100  MISS %:          0   MPKI: 0
ITLB PREFETCH  REQUESTED:          0  ISSUED:          0  USEFUL:          0  USELESS:          0
ITLB USEFUL LOAD PREFETCHES:          0 PREFETCH ISSUED TO LOWER LEVEL:          0  ACCURACY: -nan
ITLB TIMELY PREFETCHES:          0 LATE PREFETCHES: 0 DROPPED PREFETCHES: 0
ITLB PREFETCHES SAME FILL-ORIGIN LEVEL: 0 DIFFERENT FILL-ORIGIN LEVEL: 0
ITLB AVERAGE MISS LATENCY: -nan cycles
ITLB RQ	ACCESS:   33143787	FORWARD:          0	MERGED:          0	TO_CACHE:   33143787

DTLB TOTAL     ACCESS:   18082538  HIT:   18075189  MISS:       7349  HIT %:    99.9594  MISS %:  0.0406414   MPKI: 0.036745
DTLB LOAD TRANSLATION ACCESS:   18082538  HIT:   18075189  MISS:       7349  HIT %:    99.9594  MISS %:  0.0406414   MPKI: 0.036745
DTLB PREFETCH  REQUESTED:          0  ISSUED:          0  USEFUL:          0  USELESS:          0
DTLB USEFUL LOAD PREFETCHES:          0 PREFETCH ISSUED TO LOWER LEVEL:          0  ACCURACY: -nan
DTLB TIMELY PREFETCHES:          0 LATE PREFETCHES: 0 DROPPED PREFETCHES: 0
DTLB PREFETCHES SAME FILL-ORIGIN LEVEL: 0 DIFFERENT FILL-ORIGIN LEVEL: 0
DTLB AVERAGE MISS LATENCY: 119.955 cycles
DTLB RQ	ACCESS:   18585664	FORWARD:          0	MERGED:     501486	TO_CACHE:   18084178

STLB TOTAL     ACCESS:   11296144  HIT:   11288795  MISS:       7349  HIT %:    99.9349  MISS %:  0.0650576   MPKI: 0.036745
STLB LOAD TRANSLATION ACCESS:       7349  HIT:          0  MISS:       7349  HIT %:          0  MISS %:        100   MPKI: 0.036745
STLB TRANSLATION FROM L1D PREFETCHER ACCESS:   11288795  HIT:   11288795  MISS:          0  HIT %:        100  MISS %:          0   MPKI: 0
STLB PREFETCH  REQUESTED:          0  ISSUED:          0  USEFUL:          1  USELESS:          0
STLB USEFUL LOAD PREFETCHES:          1 PREFETCH ISSUED TO LOWER LEVEL:          0  ACCURACY: inf
STLB TIMELY PREFETCHES:          1 LATE PREFETCHES: 1736 DROPPED PREFETCHES: 1049206
STLB PREFETCHES SAME FILL-ORIGIN LEVEL: 0 DIFFERENT FILL-ORIGIN LEVEL: 0
STLB AVERAGE MISS LATENCY: 106.85 cycles
STLB RQ	ACCESS:   67108779	FORWARD:          0	MERGED:   54692197	TO_CACHE:   12416582

STLB Hit, L1D data hit: 0
STLB Hit, L2C data hit: 0
STLB Hit, LLC data hit: 0
STLB Hit, LLC data miss: 0
STLB STLB hints to L2: 0
L1D TOTAL     ACCESS:   77143195  HIT:   76672938  MISS:     470257  HIT %:    99.3904  MISS %:    0.60959   MPKI: 2.35128
L1D LOAD      ACCESS:   14657932  HIT:   14650517  MISS:       7415  HIT %:    99.9494  MISS %:  0.0505869   MPKI: 0.037075
L1D RFO       ACCESS:    3883881  HIT:    3883881  MISS:          0  HIT %:        100  MISS %:          0   MPKI: 0
L1D PREFETCH  ACCESS:   58601382  HIT:   58138540  MISS:     462842  HIT %:    99.2102  MISS %:   0.789814   MPKI: 2.31421
L1D PREFETCH  REQUESTED:  180623769  ISSUED:  180623633  USEFUL:     462891  USELESS:          0
L1D USEFUL LOAD PREFETCHES:     462891 PREFETCH ISSUED TO LOWER LEVEL:    2487147  ACCURACY: 18.6113
L1D TIMELY PREFETCHES:     462891 LATE PREFETCHES: 4068 DROPPED PREFETCHES: 2998983
L1D PREFETCHES SAME FILL-ORIGIN LEVEL: 466962 DIFFERENT FILL-ORIGIN LEVEL: 2020185
L1D AVERAGE MISS LATENCY: 183.543 cycles
L1D RQ	ACCESS:   30099501	FORWARD:          0	MERGED:   15398074	TO_CACHE:   14701427
L1D WQ	ACCESS:    3884237	FORWARD:          0	MERGED:          0	TO_CACHE:    3884237
L1D PQ	ACCESS:  113522204	FORWARD:          0	MERGED:   46420775	TO_CACHE:   67101429

L1D UNIQUE REGIONS ACCESSED: 0
L1D REGIONS CONFLICTS: 0
L1D Cross Page Prefetch Requests: 14985933
L1D Same Page Prefetch Requests: 157311074
L1D ROI Sum of L1D PQ occupancy: 877912591
L1D PREFETCHES PUSHED FROM L2C: 0
L1I TOTAL     ACCESS:   33140834  HIT:   33140834  MISS:          0  HIT %:        100  MISS %:          0   MPKI: 0
L1I LOAD      ACCESS:   33140834  HIT:   33140834  MISS:          0  HIT %:        100  MISS %:          0   MPKI: 0
L1I PREFETCH  REQUESTED:          0  ISSUED:          0  USEFUL:          0  USELESS:          0
L1I USEFUL LOAD PREFETCHES:          0 PREFETCH ISSUED TO LOWER LEVEL:          0  ACCURACY: -nan
L1I TIMELY PREFETCHES:          0 LATE PREFETCHES: 0 DROPPED PREFETCHES: 0
L1I PREFETCHES SAME FILL-ORIGIN LEVEL: 0 DIFFERENT FILL-ORIGIN LEVEL: 0
L1I AVERAGE MISS LATENCY: -nan cycles
L1I RQ	ACCESS:   80982686	FORWARD:          0	MERGED:   47838899	TO_CACHE:   33143787

BTB TOTAL     ACCESS:   60193643  HIT:   60193640  MISS:          3  HIT %:        100  MISS %: 4.98391e-06   MPKI: 1.5e-05
BTB BRANCH_DIRECT_JUMP	ACCESS:          0  HIT:          0  MISS:          0
BTB BRANCH_INDIRECT	ACCESS:          0  HIT:          0  MISS:          0
BTB BRANCH_CONDITIONAL	ACCESS:   60193643  HIT:   60193640  MISS:          3
BTB BRANCH_DIRECT_CALL	ACCESS:          0  HIT:          0  MISS:          0
BTB BRANCH_INDIRECT_CALL	ACCESS:          0  HIT:          0  MISS:          0
BTB BRANCH_RETURN	ACCESS:          0  HIT:          0  MISS:          0
BTB BRANCH_OTHER ACCESS:          0  HIT:          0  MISS:          0

L2C TOTAL     ACCESS:    3119863  HIT:    2438068  MISS:     681795  HIT %:    78.1466  MISS %:    21.8534   MPKI: 3.40897
L2C LOAD      ACCESS:       3347  HIT:          0  MISS:       3347  HIT %:          0  MISS %:        100   MPKI: 0.016735
L2C DATA LOAD MPKI: 0.016735
L2C INSTRUCTION LOAD MPKI: 0
L2C PREFETCH  ACCESS:    1587969  HIT:    1121059  MISS:     466910  HIT %:     70.597  MISS %:     29.403   MPKI: 2.33455
L2C DATA PREFETCH MPKI: 2.33455
L2C INSTRUCTION PREFETCH MPKI: 0
L2C WRITEBACK ACCESS:     470256  HIT:     259652  MISS:     210604  HIT %:     55.215  MISS %:     44.785   MPKI: 1.05302
L2C LOAD TRANSLATION ACCESS:       7349  HIT:       7348  MISS:          1  HIT %:    99.9864  MISS %:  0.0136073   MPKI: 5e-06
L2C TRANSLATION FROM L1D PREFETCHER ACCESS:    1050942  HIT:    1050009  MISS:        933  HIT %:    99.9112  MISS %:  0.0887775   MPKI: 0.004665
L2C PREFETCH  REQUESTED:          0  ISSUED:          0  USEFUL:        933  USELESS:     466791
L2C USEFUL LOAD PREFETCHES:        933 PREFETCH ISSUED TO LOWER LEVEL:     466969  ACCURACY: 0.199799
L2C TIMELY PREFETCHES:        933 LATE PREFETCHES: 0 DROPPED PREFETCHES: 0
L2C PREFETCHES SAME FILL-ORIGIN LEVEL: 94502 DIFFERENT FILL-ORIGIN LEVEL: 0
L2C AVERAGE MISS LATENCY: 148.074 cycles
L2C RQ	ACCESS:    1061639	FORWARD:          0	MERGED:          0	TO_CACHE:    1061639
L2C WQ	ACCESS:     470308	FORWARD:          0	MERGED:          0	TO_CACHE:     470308
L2C PQ	ACCESS:    2487147	FORWARD:          0	MERGED:        436	TO_CACHE:    2486711

L2C Instructions Evicting Data 0
L2C Translations Evicting Data 934
L2C Data Evicting Data 469569
L2C Instructions Evicting Instructions 0
L2C Translations Evicting Instructions 0
L2C Data Evicting Instructions 0
L2C Instructions Evicting Translations 0
L2C Translations Evicting Translations 0
L2C Data Evicting Translations 746
L2C Dense regions hint from L2: 0
PSCL5 TOTAL     ACCESS:    1058291  HIT:    1058291  MISS:          0  HIT %:        100  MISS %:          0   MPKI: 0
PSCL5 LOAD TRANSLATION ACCESS:       7349  HIT:       7349  MISS:          0  HIT %:        100  MISS %:          0   MPKI: 0
PSCL5 TRANSLATION FROM L1D PREFETCHER ACCESS:    1050942  HIT:    1050942  MISS:          0  HIT %:        100  MISS %:          0   MPKI: 0
PSCL5 PREFETCH  REQUESTED:          0  ISSUED:          0  USEFUL:          0  USELESS:          0
PSCL5 USEFUL LOAD PREFETCHES:          0 PREFETCH ISSUED TO LOWER LEVEL:          0  ACCURACY: -nan
PSCL5 TIMELY PREFETCHES:          0 LATE PREFETCHES: 0 DROPPED PREFETCHES: 0
PSCL5 PREFETCHES SAME FILL-ORIGIN LEVEL: 0 DIFFERENT FILL-ORIGIN LEVEL: 0

PSCL4 TOTAL     ACCESS:    1058291  HIT:    1058291  MISS:          0  HIT %:        100  MISS %:          0   MPKI: 0
PSCL4 LOAD TRANSLATION ACCESS:       7349  HIT:       7349  MISS:          0  HIT %:        100  MISS %:          0   MPKI: 0
PSCL4 TRANSLATION FROM L1D PREFETCHER ACCESS:    1050942  HIT:    1050942  MISS:          0  HIT %:        100  MISS %:          0   MPKI: 0
PSCL4 PREFETCH  REQUESTED:          0  ISSUED:          0  USEFUL:          0  USELESS:          0
PSCL4 USEFUL LOAD PREFETCHES:          0 PREFETCH ISSUED TO LOWER LEVEL:          0  ACCURACY: -nan
PSCL4 TIMELY PREFETCHES:          0 LATE PREFETCHES: 0 DROPPED PREFETCHES: 0
PSCL4 PREFETCHES SAME FILL-ORIGIN LEVEL: 0 DIFFERENT FILL-ORIGIN LEVEL: 0

PSCL3 TOTAL     ACCESS:    1058291  HIT:    1058291  MISS:          0  HIT %:        100  MISS %:          0   MPKI: 0
PSCL3 LOAD TRANSLATION ACCESS:       7349  HIT:       7349  MISS:          0  HIT %:        100  MISS %:          0   MPKI: 0
PSCL3 TRANSLATION FROM L1D PREFETCHER ACCESS:    1050942  HIT:    1050942  MISS:          0  HIT %:        100  MISS %:          0   MPKI: 0
PSCL3 PREFETCH  REQUESTED:          0  ISSUED:          0  USEFUL:          0  USELESS:          0
PSCL3 USEFUL LOAD PREFETCHES:          0 PREFETCH ISSUED TO LOWER LEVEL:          0  ACCURACY: -nan
PSCL3 TIMELY PREFETCHES:          0 LATE PREFETCHES: 0 DROPPED PREFETCHES: 0
PSCL3 PREFETCHES SAME FILL-ORIGIN LEVEL: 0 DIFFERENT FILL-ORIGIN LEVEL: 0

PSCL2 TOTAL     ACCESS:    1056337  HIT:    1056323  MISS:         14  HIT %:    99.9987  MISS %: 0.00132533   MPKI: 7e-05
PSCL2 LOAD TRANSLATION ACCESS:       7349  HIT:       7335  MISS:         14  HIT %:    99.8095  MISS %:   0.190502   MPKI: 7e-05
PSCL2 TRANSLATION FROM L1D PREFETCHER ACCESS:    1048988  HIT:    1048988  MISS:          0  HIT %:        100  MISS %:          0   MPKI: 0
PSCL2 PREFETCH  REQUESTED:          0  ISSUED:          0  USEFUL:          0  USELESS:          0
PSCL2 USEFUL LOAD PREFETCHES:          0 PREFETCH ISSUED TO LOWER LEVEL:          0  ACCURACY: -nan
PSCL2 TIMELY PREFETCHES:          0 LATE PREFETCHES: 0 DROPPED PREFETCHES: 0
PSCL2 PREFETCHES SAME FILL-ORIGIN LEVEL: 0 DIFFERENT FILL-ORIGIN LEVEL: 0

LLC TOTAL     ACCESS:     941497  HIT:     423462  MISS:     518035  HIT %:    44.9775  MISS %:    55.0225   MPKI: 2.59017
LLC LOAD      ACCESS:       3347  HIT:          0  MISS:       3347  HIT %:          0  MISS %:        100   MPKI: 0.016735
LLC PREFETCH  ACCESS:     466913  HIT:          0  MISS:     466913  HIT %:          0  MISS %:        100   MPKI: 2.33456
LLC WRITEBACK ACCESS:     470303  HIT:     423459  MISS:      46844  HIT %:    90.0396  MISS %:    9.96039   MPKI: 0.23422
LLC LOAD TRANSLATION ACCESS:          1  HIT:          0  MISS:          1  HIT %:          0  MISS %:        100   MPKI: 5e-06
LLC TRANSLATION FROM L1D PREFETCHER ACCESS:        933  HIT:          3  MISS:        930  HIT %:   0.321543  MISS %:    99.6785   MPKI: 0.00465
LLC PREFETCH  REQUESTED:          0  ISSUED:          0  USEFUL:          2  USELESS:    1872890
LLC USEFUL LOAD PREFETCHES:          2 PREFETCH ISSUED TO LOWER LEVEL:    1867758  ACCURACY: 0.00010708
LLC TIMELY PREFETCHES:          2 LATE PREFETCHES: 0 DROPPED PREFETCHES: 0
LLC PREFETCHES SAME FILL-ORIGIN LEVEL: 0 DIFFERENT FILL-ORIGIN LEVEL: 0
LLC AVERAGE MISS LATENCY: 668.003 cycles
LLC RQ	ACCESS:      17122	FORWARD:          0	MERGED:          0	TO_CACHE:      17122
LLC WQ	ACCESS:    1880895	FORWARD:          0	MERGED:          0	TO_CACHE:    1880895
LLC PQ	ACCESS:    1867758	FORWARD:          0	MERGED:          0	TO_CACHE:    1867758

LLC Dense regions hint to LLC: 0

RAW hits: 0
Loads Generated: 30096784
Loads sent to L1D: 30096784
Stores Generated: 3883883
Stores sent to L1D: 3883881
Major fault: 0 Minor fault: 9209
Allocated PAGES: 36836

CPU 1 cumulative IPC: 1.1505 instructions: 200000000 cycles: 173836808
ITLB TOTAL     ACCESS:   33140812  HIT:   33140812  MISS:          0  HIT %:        100  MISS %:          0   MPKI: 0
ITLB LOAD TRANSLATION ACCESS:   33140812  HIT:   33140812  MISS:          0  HIT %:        100  MISS %:          0   MPKI: 0
ITLB PREFETCH  REQUESTED:          0  ISSUED:          0  USEFUL:          0  USELESS:          0
ITLB USEFUL LOAD PREFETCHES:          0 PREFETCH ISSUED TO LOWER LEVEL:          0  ACCURACY: -nan
ITLB TIMELY PREFETCHES:          0 LATE PREFETCHES: 0 DROPPED PREFETCHES: 0
ITLB PREFETCHES SAME FILL-ORIGIN LEVEL: 0 DIFFERENT FILL-ORIGIN LEVEL: 0
ITLB AVERAGE MISS LATENCY: -nan cycles
ITLB RQ	ACCESS:   33142795	FORWARD:          0	MERGED:          0	TO_CACHE:   33142795

DTLB TOTAL     ACCESS:   18081807  HIT:   18074459  MISS:       7348  HIT %:    99.9594  MISS %:  0.0406375   MPKI: 0.03674
DTLB LOAD TRANSLATION ACCESS:   18081807  HIT:   18074459  MISS:       7348  HIT %:    99.9594  MISS %:  0.0406375   MPKI: 0.03674
DTLB PREFETCH  REQUESTED:          0  ISSUED:          0  USEFUL:          0  USELESS:          0
DTLB USEFUL LOAD PREFETCHES:          0 PREFETCH ISSUED TO LOWER LEVEL:          0  ACCURACY: -nan
DTLB TIMELY PREFETCHES:          0 LATE PREFETCHES: 0 DROPPED PREFETCHES: 0
DTLB PREFETCHES SAME FILL-ORIGIN LEVEL: 0 DIFFERENT FILL-ORIGIN LEVEL: 0
DTLB AVERAGE MISS LATENCY: 119.969 cycles
DTLB RQ	ACCESS:   18584527	FORWARD:          0	MERGED:     501643	TO_CACHE:   18082884

STLB TOTAL     ACCESS:   11296340  HIT:   11288992  MISS:       7348  HIT %:     99.935  MISS %:  0.0650476   MPKI: 0.03674
STLB LOAD TRANSLATION ACCESS:       7348  HIT:          0  MISS:       7348  HIT %:          0  MISS %:        100   MPKI: 0.03674
STLB TRANSLATION FROM L1D PREFETCHER ACCESS:   11288992  HIT:   11288992  MISS:          0  HIT %:        100  MISS %:          0   MPKI: 0
STLB PREFETCH  REQUESTED:          0  ISSUED:          0  USEFUL:          1  USELESS:          0
STLB USEFUL LOAD PREFETCHES:          1 PREFETCH ISSUED TO LOWER LEVEL:          0  ACCURACY: inf
STLB TIMELY PREFETCHES:          1 LATE PREFETCHES: 1733 DROPPED PREFETCHES: 1047135
STLB PREFETCHES SAME FILL-ORIGIN LEVEL: 0 DIFFERENT FILL-ORIGIN LEVEL: 0
STLB AVERAGE MISS LATENCY: 106.775 cycles
STLB RQ	ACCESS:   67106783	FORWARD:          0	MERGED:   54692503	TO_CACHE:   12414280

STLB Hit, L1D data hit: 0
STLB Hit, L2C data hit: 0
STLB Hit, LLC data hit: 0
STLB Hit, LLC data miss: 0
STLB STLB hints to L2: 0
L1D TOTAL     ACCESS:   77168620  HIT:   76698364  MISS:     470256  HIT %:    99.3906  MISS %:   0.609388   MPKI: 2.35128
L1D LOAD      ACCESS:   14657323  HIT:   14649894  MISS:       7429  HIT %:    99.9493  MISS %:  0.0506846   MPKI: 0.037145
L1D RFO       ACCESS:    3883881  HIT:    3883881  MISS:          0  HIT %:        100  MISS %:          0   MPKI: 0
L1D PREFETCH  ACCESS:   58627416  HIT:   58164589  MISS:     462827  HIT %:    99.2106  MISS %:   0.789438   MPKI: 2.31413
L1D PREFETCH  REQUESTED:  180605996  ISSUED:  180605996  USEFUL:     462861  USELESS:          0
L1D USEFUL LOAD PREFETCHES:     462861 PREFETCH ISSUED TO LOWER LEVEL:    2472440  ACCURACY: 18.7208
L1D TIMELY PREFETCHES:     462861 LATE PREFETCHES: 4082 DROPPED PREFETCHES: 2994975
L1D PREFETCHES SAME FILL-ORIGIN LEVEL: 466941 DIFFERENT FILL-ORIGIN LEVEL: 2005499
L1D AVERAGE MISS LATENCY: 183.348 cycles
L1D RQ	ACCESS:   30098567	FORWARD:          0	MERGED:   15398156	TO_CACHE:   14700411
L1D WQ	ACCESS:    3884116	FORWARD:          0	MERGED:          0	TO_CACHE:    3884116
L1D PQ	ACCESS:  113506563	FORWARD:          0	MERGED:   46407130	TO_CACHE:   67099433

L1D UNIQUE REGIONS ACCESSED: 0
L1D REGIONS CONFLICTS: 0
L1D Cross Page Prefetch Requests: 14975123
L1D Same Page Prefetch Requests: 156716643
L1D ROI Sum of L1D PQ occupancy: 877705642
L1D PREFETCHES PUSHED FROM L2C: 0
L1I TOTAL     ACCESS:   33140812  HIT:   33140812  MISS:          0  HIT %:        100  MISS %:          0   MPKI: 0
L1I LOAD      ACCESS:   33140812  HIT:   33140812  MISS:          0  HIT %:        100  MISS %:          0   MPKI: 0
L1I PREFETCH  REQUESTED:          0  ISSUED:          0  USEFUL:          0  USELESS:          0
L1I USEFUL LOAD PREFETCHES:          0 PREFETCH ISSUED TO LOWER LEVEL:          0  ACCURACY: -nan
L1I TIMELY PREFETCHES:          0 LATE PREFETCHES: 0 DROPPED PREFETCHES: 0
L1I PREFETCHES SAME FILL-ORIGIN LEVEL: 0 DIFFERENT FILL-ORIGIN LEVEL: 0
L1I AVERAGE MISS LATENCY: -nan cycles
L1I RQ	ACCESS:   80980073	FORWARD:          0	MERGED:   47837278	TO_CACHE:   33142795

BTB TOTAL     ACCESS:   60193528  HIT:   60193525  MISS:          3  HIT %:        100  MISS %: 4.98392e-06   MPKI: 1.5e-05
BTB BRANCH_DIRECT_JUMP	ACCESS:          0  HIT:          0  MISS:          0
BTB BRANCH_INDIRECT	ACCESS:          0  HIT:          0  MISS:          0
BTB BRANCH_CONDITIONAL	ACCESS:   60193528  HIT:   60193525  MISS:          3
BTB BRANCH_DIRECT_CALL	ACCESS:          0  HIT:          0  MISS:          0
BTB BRANCH_INDIRECT_CALL	ACCESS:          0  HIT:          0  MISS:          0
BTB BRANCH_RETURN	ACCESS:          0  HIT:          0  MISS:          0
BTB BRANCH_OTHER ACCESS:          0  HIT:          0  MISS:          0

L2C TOTAL     ACCESS:    3118684  HIT:    2440172  MISS:     678512  HIT %:    78.2436  MISS %:    21.7564   MPKI: 3.39256
L2C LOAD      ACCESS:       3347  HIT:          0  MISS:       3347  HIT %:          0  MISS %:        100   MPKI: 0.016735
L2C DATA LOAD MPKI: 0.016735
L2C INSTRUCTION LOAD MPKI: 0
L2C PREFETCH  ACCESS:    1588867  HIT:    1121958  MISS:     466909  HIT %:    70.6137  MISS %:    29.3863   MPKI: 2.33454
L2C DATA PREFETCH MPKI: 2.33454
L2C INSTRUCTION PREFETCH MPKI: 0
L2C WRITEBACK ACCESS:     470254  HIT:     262927  MISS:     207327  HIT %:    55.9117  MISS %:    44.0883   MPKI: 1.03663
L2C LOAD TRANSLATION ACCESS:       7348  HIT:       7348  MISS:          0  HIT %:        100  MISS %:          0   MPKI: 0
L2C TRANSLATION FROM L1D PREFETCHER ACCESS:    1048868  HIT:    1047939  MISS:        929  HIT %:    99.9114  MISS %:  0.0885717   MPKI: 0.004645
L2C PREFETCH  REQUESTED:          0  ISSUED:          0  USEFUL:        929  USELESS:     467210
L2C USEFUL LOAD PREFETCHES:        929 PREFETCH ISSUED TO LOWER LEVEL:     466944  ACCURACY: 0.198953
L2C TIMELY PREFETCHES:        929 LATE PREFETCHES: 0 DROPPED PREFETCHES: 0
L2C PREFETCHES SAME FILL-ORIGIN LEVEL: 93972 DIFFERENT FILL-ORIGIN LEVEL: 0
L2C AVERAGE MISS LATENCY: 148.181 cycles
L2C RQ	ACCESS:    1059566	FORWARD:          0	MERGED:          0	TO_CACHE:    1059566
L2C WQ	ACCESS:     470289	FORWARD:          0	MERGED:          0	TO_CACHE:     470289
L2C PQ	ACCESS:    2472440	FORWARD:          0	MERGED:        416	TO_CACHE:    2472024

L2C Instructions Evicting Data 0
L2C Translations Evicting Data 930
L2C Data Evicting Data 469504
L2C Instructions Evicting Instructions 0
L2C Translations Evicting Instructions 0
L2C Data Evicting Instructions 0
L2C Instructions Evicting Translations 0
L2C Translations Evicting Translations 0
L2C Data Evicting Translations 788
L2C Dense regions hint from L2: 0
PSCL5 TOTAL     ACCESS:    1056216  HIT:    1056216  MISS:          0  HIT %:        100  MISS %:          0   MPKI: 0
PSCL5 LOAD TRANSLATION ACCESS:       7348  HIT:       7348  MISS:          0  HIT %:        100  MISS %:          0   MPKI: 0
PSCL5 TRANSLATION FROM L1D PREFETCHER ACCESS:    1048868  HIT:    1048868  MISS:          0  HIT %:        100  MISS %:          0   MPKI: 0
PSCL5 PREFETCH  REQUESTED:          0  ISSUED:          0  USEFUL:          0  USELESS:          0
PSCL5 USEFUL LOAD PREFETCHES:          0 PREFETCH ISSUED TO LOWER LEVEL:          0  ACCURACY: -nan
PSCL5 TIMELY PREFETCHES:          0 LATE PREFETCHES: 0 DROPPED PREFETCHES: 0
PSCL5 PREFETCHES SAME FILL-ORIGIN LEVEL: 0 DIFFERENT FILL-ORIGIN LEVEL: 0

PSCL4 TOTAL     ACCESS:    1056216  HIT:    1056216  MISS:          0  HIT %:        100  MISS %:          0   MPKI: 0
PSCL4 LOAD TRANSLATION ACCESS:       7348  HIT:       7348  MISS:          0  HIT %:        100  MISS %:          0   MPKI: 0
PSCL4 TRANSLATION FROM L1D PREFETCHER ACCESS:    1048868  HIT:    1048868  MISS:          0  HIT %:        100  MISS %:          0   MPKI: 0
PSCL4 PREFETCH  REQUESTED:          0  ISSUED:          0  USEFUL:          0  USELESS:          0
PSCL4 USEFUL LOAD PREFETCHES:          0 PREFETCH ISSUED TO LOWER LEVEL:          0  ACCURACY: -nan
PSCL4 TIMELY PREFETCHES:          0 LATE PREFETCHES: 0 DROPPED PREFETCHES: 0
PSCL4 PREFETCHES SAME FILL-ORIGIN LEVEL: 0 DIFFERENT FILL-ORIGIN LEVEL: 0

PSCL3 TOTAL     ACCESS:    1056216  HIT:    1056216  MISS:          0  HIT %:        100  MISS %:          0   MPKI: 0
PSCL3 LOAD TRANSLATION ACCESS:       7348  HIT:       7348  MISS:          0  HIT %:        100  MISS %:          0   MPKI: 0
PSCL3 TRANSLATION FROM L1D PREFETCHER ACCESS:    1048868  HIT:    1048868  MISS:          0  HIT %:        100  MISS %:          0   MPKI: 0
PSCL3 PREFETCH  REQUESTED:          0  ISSUED:          0  USEFUL:          0  USELESS:          0
PSCL3 USEFUL LOAD PREFETCHES:          0 PREFETCH ISSUED TO LOWER LEVEL:          0  ACCURACY: -nan
PSCL3 TIMELY PREFETCHES:          0 LATE PREFETCHES: 0 DROPPED PREFETCHES: 0
PSCL3 PREFETCHES SAME FILL-ORIGIN LEVEL: 0 DIFFERENT FILL-ORIGIN LEVEL: 0

PSCL2 TOTAL     ACCESS:    1054166  HIT:    1054152  MISS:         14  HIT %:    99.9987  MISS %: 0.00132806   MPKI: 7e-05
PSCL2 LOAD TRANSLATION ACCESS:       7348  HIT:       7334  MISS:         14  HIT %:    99.8095  MISS %:   0.190528   MPKI: 7e-05
PSCL2 TRANSLATION FROM L1D PREFETCHER ACCESS:    1046818  HIT:    1046818  MISS:          0  HIT %:        100  MISS %:          0   MPKI: 0
PSCL2 PREFETCH  REQUESTED:          0  ISSUED:          0  USEFUL:          0  USELESS:          0
PSCL2 USEFUL LOAD PREFETCHES:          0 PREFETCH ISSUED TO LOWER LEVEL:          0  ACCURACY: -nan
PSCL2 TIMELY PREFETCHES:          0 LATE PREFETCHES: 0 DROPPED PREFETCHES: 0
PSCL2 PREFETCHES SAME FILL-ORIGIN LEVEL: 0 DIFFERENT FILL-ORIGIN LEVEL: 0

LLC TOTAL     ACCESS:     941294  HIT:     423352  MISS:     517942  HIT %:    44.9755  MISS %:    55.0245   MPKI: 2.58971
LLC LOAD      ACCESS:       3347  HIT:          0  MISS:       3347  HIT %:          0  MISS %:        100   MPKI: 0.016735
LLC PREFETCH  ACCESS:     466909  HIT:          0  MISS:     466909  HIT %:          0  MISS %:        100   MPKI: 2.33454
LLC WRITEBACK ACCESS:     470109  HIT:     423350  MISS:      46759  HIT %:    90.0536  MISS %:    9.94642   MPKI: 0.233795
LLC TRANSLATION FROM L1D PREFETCHER ACCESS:        929  HIT:          2  MISS:        927  HIT %:   0.215285  MISS %:    99.7847   MPKI: 0.004635
LLC PREFETCH  REQUESTED:          0  ISSUED:          0  USEFUL:          2  USELESS:    1872890
LLC USEFUL LOAD PREFETCHES:          2 PREFETCH ISSUED TO LOWER LEVEL:    1867758  ACCURACY: 0.00010708
LLC TIMELY PREFETCHES:          2 LATE PREFETCHES: 0 DROPPED PREFETCHES: 0
LLC PREFETCHES SAME FILL-ORIGIN LEVEL: 0 DIFFERENT FILL-ORIGIN LEVEL: 0
LLC AVERAGE MISS LATENCY: 668.123 cycles
LLC RQ	ACCESS:      17122	FORWARD:          0	MERGED:          0	TO_CACHE:      17122
LLC WQ	ACCESS:    1880895	FORWARD:          0	MERGED:          0	TO_CACHE:    1880895
LLC PQ	ACCESS:    1867758	FORWARD:          0	MERGED:          0	TO_CACHE:    1867758

LLC Dense regions hint to LLC: 0

RAW hits: 0
Loads Generated: 30096766
Loads sent to L1D: 30096765
Stores Generated: 3883880
Stores sent to L1D: 3883881
Major fault: 0 Minor fault: 9209
Allocated PAGES: 36836

CPU 2 cumulative IPC: 1.15047 instructions: 200000001 cycles: 173842367
ITLB TOTAL     ACCESS:   33140815  HIT:   33140815  MISS:          0  HIT %:        100  MISS %:          0   MPKI: 0
ITLB LOAD TRANSLATION ACCESS:   33140815  HIT:   33140815  MISS:          0  HIT %:        100  MISS %:          0   MPKI: 0
ITLB PREFETCH  REQUESTED:          0  ISSUED:          0  USEFUL:          0  USELESS:          0
ITLB USEFUL LOAD PREFETCHES:          0 PREFETCH ISSUED TO LOWER LEVEL:          0  ACCURACY: -nan
ITLB TIMELY PREFETCHES:          0 LATE PREFETCHES: 0 DROPPED PREFETCHES: 0
ITLB PREFETCHES SAME FILL-ORIGIN LEVEL: 0 DIFFERENT FILL-ORIGIN LEVEL: 0
ITLB AVERAGE MISS LATENCY: -nan cycles
ITLB RQ	ACCESS:   33141734	FORWARD:          0	MERGED:          0	TO_CACHE:   33141734

DTLB TOTAL     ACCESS:   18082286  HIT:   18074938  MISS:       7348  HIT %:    99.9594  MISS %:  0.0406365   MPKI: 0.03674
DTLB LOAD TRANSLATION ACCESS:   18082286  HIT:   18074938  MISS:       7348  HIT %:    99.9594  MISS %:  0.0406365   MPKI: 0.03674
DTLB PREFETCH  REQUESTED:          0  ISSUED:          0  USEFUL:          0  USELESS:          0
DTLB USEFUL LOAD PREFETCHES:          0 PREFETCH ISSUED TO LOWER LEVEL:          0  ACCURACY: -nan
DTLB TIMELY PREFETCHES:          0 LATE PREFETCHES: 0 DROPPED PREFETCHES: 0
DTLB PREFETCHES SAME FILL-ORIGIN LEVEL: 0 DIFFERENT FILL-ORIGIN LEVEL: 0
DTLB AVERAGE MISS LATENCY: 119.969 cycles
DTLB RQ	ACCESS:   18584583	FORWARD:          0	MERGED:     501801	TO_CACHE:   18082782

STLB TOTAL     ACCESS:   11296970  HIT:   11289622  MISS:       7348  HIT %:     99.935  MISS %:   0.065044   MPKI: 0.03674
STLB LOAD TRANSLATION ACCESS:       7348  HIT:          0  MISS:       7348  HIT %:          0  MISS %:        100   MPKI: 0.03674
STLB TRANSLATION FROM L1D PREFETCHER ACCESS:   11289622  HIT:   11289622  MISS:          0  HIT %:        100  MISS %:          0   MPKI: 0
STLB PREFETCH  REQUESTED:          0  ISSUED:          0  USEFUL:          1  USELESS:          0
STLB USEFUL LOAD PREFETCHES:          1 PREFETCH ISSUED TO LOWER LEVEL:          0  ACCURACY: inf
STLB TIMELY PREFETCHES:          1 LATE PREFETCHES: 1737 DROPPED PREFETCHES: 1048287
STLB PREFETCHES SAME FILL-ORIGIN LEVEL: 0 DIFFERENT FILL-ORIGIN LEVEL: 0
STLB AVERAGE MISS LATENCY: 106.795 cycles
STLB RQ	ACCESS:   67108628	FORWARD:          0	MERGED:   54692874	TO_CACHE:   12415754

STLB Hit, L1D data hit: 0
STLB Hit, L2C data hit: 0
STLB Hit, LLC data hit: 0
STLB Hit, LLC data miss: 0
STLB STLB hints to L2: 0
L1D TOTAL     ACCESS:   77188020  HIT:   76717763  MISS:     470257  HIT %:    99.3908  MISS %:   0.609236   MPKI: 2.35128
L1D LOAD      ACCESS:   14657871  HIT:   14650427  MISS:       7444  HIT %:    99.9492  MISS %:   0.050785   MPKI: 0.03722
L1D RFO       ACCESS:    3883881  HIT:    3883881  MISS:          0  HIT %:        100  MISS %:          0   MPKI: 0
L1D PREFETCH  ACCESS:   58646268  HIT:   58183455  MISS:     462813  HIT %:    99.2108  MISS %:    0.78916   MPKI: 2.31406
L1D PREFETCH  REQUESTED:  180616101  ISSUED:  180615853  USEFUL:     462831  USELESS:          0
L1D USEFUL LOAD PREFETCHES:     462831 PREFETCH ISSUED TO LOWER LEVEL:    2465205  ACCURACY: 18.7745
L1D TIMELY PREFETCHES:     462831 LATE PREFETCHES: 4094 DROPPED PREFETCHES: 2996885
L1D PREFETCHES SAME FILL-ORIGIN LEVEL: 466935 DIFFERENT FILL-ORIGIN LEVEL: 1998270
L1D AVERAGE MISS LATENCY: 182.967 cycles
L1D RQ	ACCESS:   30097596	FORWARD:          0	MERGED:   15397004	TO_CACHE:   14700592
L1D WQ	ACCESS:    3883991	FORWARD:          0	MERGED:          0	TO_CACHE:    3883991
L1D PQ	ACCESS:  113514574	FORWARD:          0	MERGED:   46413295	TO_CACHE:   67101279

L1D UNIQUE REGIONS ACCESSED: 0
L1D REGIONS CONFLICTS: 0
L1D Cross Page Prefetch Requests: 14979045
L1D Same Page Prefetch Requests: 156522166
L1D ROI Sum of L1D PQ occupancy: 877822082
L1D PREFETCHES PUSHED FROM L2C: 0
L1I TOTAL     ACCESS:   33140815  HIT:   33140815  MISS:          0  HIT %:        100  MISS %:          0   MPKI: 0
L1I LOAD      ACCESS:   33140815  HIT:   33140815  MISS:          0  HIT %:        100  MISS %:          0   MPKI: 0
L1I PREFETCH  REQUESTED:          0  ISSUED:          0  USEFUL:          0  USELESS:          0
L1I USEFUL LOAD PREFETCHES:          0 PREFETCH ISSUED TO LOWER LEVEL:          0  ACCURACY: -nan
L1I TIMELY PREFETCHES:          0 LATE PREFETCHES: 0 DROPPED PREFETCHES: 0
L1I PREFETCHES SAME FILL-ORIGIN LEVEL: 0 DIFFERENT FILL-ORIGIN LEVEL: 0
L1I AVERAGE MISS LATENCY: -nan cycles
L1I RQ	ACCESS:   80977504	FORWARD:          0	MERGED:   47835770	TO_CACHE:   33141734

BTB TOTAL     ACCESS:   60193528  HIT:   60193525  MISS:          3  HIT %:        100  MISS %: 4.98392e-06   MPKI: 1.5e-05
BTB BRANCH_DIRECT_JUMP	ACCESS:          0  HIT:          0  MISS:          0
BTB BRANCH_INDIRECT	ACCESS:          0  HIT:          0  MISS:          0
BTB BRANCH_CONDITIONAL	ACCESS:   60193528  HIT:   60193525  MISS:          3
BTB BRANCH_DIRECT_CALL	ACCESS:          0  HIT:          0  MISS:          0
BTB BRANCH_INDIRECT_CALL	ACCESS:          0  HIT:          0  MISS:          0
BTB BRANCH_RETURN	ACCESS:          0  HIT:          0  MISS:          0
BTB BRANCH_OTHER ACCESS:          0  HIT:          0  MISS:          0

L2C TOTAL     ACCESS:    3110643  HIT:    2430477  MISS:     680166  HIT %:    78.1342  MISS %:    21.8658   MPKI: 3.40083
L2C LOAD      ACCESS:       3350  HIT:          0  MISS:       3350  HIT %:          0  MISS %:        100   MPKI: 0.01675
L2C DATA LOAD MPKI: 0.01675
L2C INSTRUCTION LOAD MPKI: 0
L2C PREFETCH  ACCESS:    1579664  HIT:    1112757  MISS:     466907  HIT %:    70.4426  MISS %:    29.5574   MPKI: 2.33453
L2C DATA PREFETCH MPKI: 2.33453
L2C INSTRUCTION PREFETCH MPKI: 0
L2C WRITEBACK ACCESS:     470257  HIT:     261281  MISS:     208976  HIT %:    55.5613  MISS %:    44.4387   MPKI: 1.04488
L2C LOAD TRANSLATION ACCESS:       7348  HIT:       7348  MISS:          0  HIT %:        100  MISS %:          0   MPKI: 0
L2C TRANSLATION FROM L1D PREFETCHER ACCESS:    1050024  HIT:    1049091  MISS:        933  HIT %:    99.9111  MISS %:  0.0888551   MPKI: 0.004665
L2C PREFETCH  REQUESTED:          0  ISSUED:          0  USEFUL:        933  USELESS:     467070
L2C USEFUL LOAD PREFETCHES:        933 PREFETCH ISSUED TO LOWER LEVEL:     466935  ACCURACY: 0.199814
L2C TIMELY PREFETCHES:        933 LATE PREFETCHES: 0 DROPPED PREFETCHES: 0
L2C PREFETCHES SAME FILL-ORIGIN LEVEL: 93614 DIFFERENT FILL-ORIGIN LEVEL: 0
L2C AVERAGE MISS LATENCY: 147.667 cycles
L2C RQ	ACCESS:    1060725	FORWARD:          0	MERGED:          0	TO_CACHE:    1060725
L2C WQ	ACCESS:     470286	FORWARD:          0	MERGED:          0	TO_CACHE:     470286
L2C PQ	ACCESS:    2465205	FORWARD:          0	MERGED:        389	TO_CACHE:    2464816

L2C Instructions Evicting Data 0
L2C Translations Evicting Data 931
L2C Data Evicting Data 469503
L2C Instructions Evicting Instructions 0
L2C Translations Evicting Instructions 0
L2C Data Evicting Instructions 0
L2C Instructions Evicting Translations 0
L2C Translations Evicting Translations 3
L2C Data Evicting Translations 783
L2C Dense regions hint from L2: 0
PSCL5 TOTAL     ACCESS:    1057372  HIT:    1057372  MISS:          0  HIT %:        100  MISS %:          0   MPKI: 0
PSCL5 LOAD TRANSLATION ACCESS:       7348  HIT:       7348  MISS:          0  HIT %:        100  MISS %:          0   MPKI: 0
PSCL5 TRANSLATION FROM L1D PREFETCHER ACCESS:    1050024  HIT:    1050024  MISS:          0  HIT %:        100  MISS %:          0   MPKI: 0
PSCL5 PREFETCH  REQUESTED:          0  ISSUED:          0  USEFUL:          0  USELESS:          0
PSCL5 USEFUL LOAD PREFETCHES:          0 PREFETCH ISSUED TO LOWER LEVEL:          0  ACCURACY: -nan
PSCL5 TIMELY PREFETCHES:          0 LATE PREFETCHES: 0 DROPPED PREFETCHES: 0
PSCL5 PREFETCHES SAME FILL-ORIGIN LEVEL: 0 DIFFERENT FILL-ORIGIN LEVEL: 0

PSCL4 TOTAL     ACCESS:    1057372  HIT:    1057372  MISS:          0  HIT %:        100  MISS %:          0   MPKI: 0
PSCL4 LOAD TRANSLATION ACCESS:       7348  HIT:       7348  MISS:          0  HIT %:        100  MISS %:          0   MPKI: 0
PSCL4 TRANSLATION FROM L1D PREFETCHER ACCESS:    1050024  HIT:    1050024  MISS:          0  HIT %:        100  MISS %:          0   MPKI: 0
PSCL4 PREFETCH  REQUESTED:          0  ISSUED:          0  USEFUL:          0  USELESS:          0
PSCL4 USEFUL LOAD PREFETCHES:          0 PREFETCH ISSUED TO LOWER LEVEL:          0  ACCURACY: -nan
PSCL4 TIMELY PREFETCHES:          0 LATE PREFETCHES: 0 DROPPED PREFETCHES: 0
PSCL4 PREFETCHES SAME FILL-ORIGIN LEVEL: 0 DIFFERENT FILL-ORIGIN LEVEL: 0

PSCL3 TOTAL     ACCESS:    1057372  HIT:    1057372  MISS:          0  HIT %:        100  MISS %:          0   MPKI: 0
PSCL3 LOAD TRANSLATION ACCESS:       7348  HIT:       7348  MISS:          0  HIT %:        100  MISS %:          0   MPKI: 0
PSCL3 TRANSLATION FROM L1D PREFETCHER ACCESS:    1050024  HIT:    1050024  MISS:          0  HIT %:        100  MISS %:          0   MPKI: 0
PSCL3 PREFETCH  REQUESTED:          0  ISSUED:          0  USEFUL:          0  USELESS:          0
PSCL3 USEFUL LOAD PREFETCHES:          0 PREFETCH ISSUED TO LOWER LEVEL:          0  ACCURACY: -nan
PSCL3 TIMELY PREFETCHES:          0 LATE PREFETCHES: 0 DROPPED PREFETCHES: 0
PSCL3 PREFETCHES SAME FILL-ORIGIN LEVEL: 0 DIFFERENT FILL-ORIGIN LEVEL: 0

PSCL2 TOTAL     ACCESS:    1055460  HIT:    1055446  MISS:         14  HIT %:    99.9987  MISS %: 0.00132644   MPKI: 7e-05
PSCL2 LOAD TRANSLATION ACCESS:       7348  HIT:       7334  MISS:         14  HIT %:    99.8095  MISS %:   0.190528   MPKI: 7e-05
PSCL2 TRANSLATION FROM L1D PREFETCHER ACCESS:    1048112  HIT:    1048112  MISS:          0  HIT %:        100  MISS %:          0   MPKI: 0
PSCL2 PREFETCH  REQUESTED:          0  ISSUED:          0  USEFUL:          0  USELESS:          0
PSCL2 USEFUL LOAD PREFETCHES:          0 PREFETCH ISSUED TO LOWER LEVEL:          0  ACCURACY: -nan
PSCL2 TIMELY PREFETCHES:          0 LATE PREFETCHES: 0 DROPPED PREFETCHES: 0
PSCL2 PREFETCHES SAME FILL-ORIGIN LEVEL: 0 DIFFERENT FILL-ORIGIN LEVEL: 0

LLC TOTAL     ACCESS:     941433  HIT:     423439  MISS:     517994  HIT %:    44.9781  MISS %:    55.0219   MPKI: 2.58997
LLC LOAD      ACCESS:       3350  HIT:          0  MISS:       3350  HIT %:          0  MISS %:        100   MPKI: 0.01675
LLC PREFETCH  ACCESS:     466907  HIT:          0  MISS:     466907  HIT %:          0  MISS %:        100   MPKI: 2.33453
LLC WRITEBACK ACCESS:     470243  HIT:     423439  MISS:      46804  HIT %:    90.0468  MISS %:    9.95315   MPKI: 0.23402
LLC TRANSLATION FROM L1D PREFETCHER ACCESS:        933  HIT:          0  MISS:        933  HIT %:          0  MISS %:        100   MPKI: 0.004665
LLC PREFETCH  REQUESTED:          0  ISSUED:          0  USEFUL:          2  USELESS:    1872890
LLC USEFUL LOAD PREFETCHES:          2 PREFETCH ISSUED TO LOWER LEVEL:    1867758  ACCURACY: 0.00010708
LLC TIMELY PREFETCHES:          2 LATE PREFETCHES: 0 DROPPED PREFETCHES: 0
LLC PREFETCHES SAME FILL-ORIGIN LEVEL: 0 DIFFERENT FILL-ORIGIN LEVEL: 0
LLC AVERAGE MISS LATENCY: 668.056 cycles
LLC RQ	ACCESS:      17122	FORWARD:          0	MERGED:          0	TO_CACHE:      17122
LLC WQ	ACCESS:    1880895	FORWARD:          0	MERGED:          0	TO_CACHE:    1880895
LLC PQ	ACCESS:    1867758	FORWARD:          0	MERGED:          0	TO_CACHE:    1867758

LLC Dense regions hint to LLC: 0

RAW hits: 0
Loads Generated: 30096766
Loads sent to L1D: 30096765
Stores Generated: 3883880
Stores sent to L1D: 3883881
Major fault: 0 Minor fault: 9209
Allocated PAGES: 36836

CPU 3 cumulative IPC: 1.15043 instructions: 200000001 cycles: 173847539
ITLB TOTAL     ACCESS:   33140790  HIT:   33140790  MISS:          0  HIT %:        100  MISS %:          0   MPKI: 0
ITLB LOAD TRANSLATION ACCESS:   33140790  HIT:   33140790  MISS:          0  HIT %:        100  MISS %:          0   MPKI: 0
ITLB PREFETCH  REQUESTED:          0  ISSUED:          0  USEFUL:          0  USELESS:          0
ITLB USEFUL LOAD PREFETCHES:          0 PREFETCH ISSUED TO LOWER LEVEL:          0  ACCURACY: -nan
ITLB TIMELY PREFETCHES:          0 LATE PREFETCHES: 0 DROPPED PREFETCHES: 0
ITLB PREFETCHES SAME FILL-ORIGIN LEVEL: 0 DIFFERENT FILL-ORIGIN LEVEL: 0
ITLB AVERAGE MISS LATENCY: -nan cycles
ITLB RQ	ACCESS:   33140790	FORWARD:          0	MERGED:          0	TO_CACHE:   33140790

DTLB TOTAL     ACCESS:   18081598  HIT:   18074250  MISS:       7348  HIT %:    99.9594  MISS %:   0.040638   MPKI: 0.03674
DTLB LOAD TRANSLATION ACCESS:   18081598  HIT:   18074250  MISS:       7348  HIT %:    99.9594  MISS %:   0.040638   MPKI: 0.03674
DTLB PREFETCH  REQUESTED:          0  ISSUED:          0  USEFUL:          0  USELESS:          0
DTLB USEFUL LOAD PREFETCHES:          0 PREFETCH ISSUED TO LOWER LEVEL:          0  ACCURACY: -nan
DTLB TIMELY PREFETCHES:          0 LATE PREFETCHES: 0 DROPPED PREFETCHES: 0
DTLB PREFETCHES SAME FILL-ORIGIN LEVEL: 0 DIFFERENT FILL-ORIGIN LEVEL: 0
DTLB AVERAGE MISS LATENCY: 119.932 cycles
DTLB RQ	ACCESS:   18583232	FORWARD:          0	MERGED:     501634	TO_CACHE:   18081598

STLB TOTAL     ACCESS:   11295899  HIT:   11288551  MISS:       7348  HIT %:    99.9349  MISS %:  0.0650502   MPKI: 0.03674
STLB LOAD TRANSLATION ACCESS:       7348  HIT:          0  MISS:       7348  HIT %:          0  MISS %:        100   MPKI: 0.03674
STLB TRANSLATION FROM L1D PREFETCHER ACCESS:   11288551  HIT:   11288551  MISS:          0  HIT %:        100  MISS %:          0   MPKI: 0
STLB PREFETCH  REQUESTED:          0  ISSUED:          0  USEFUL:          0  USELESS:          0
STLB USEFUL LOAD PREFETCHES:          0 PREFETCH ISSUED TO LOWER LEVEL:          0  ACCURACY: -nan
STLB TIMELY PREFETCHES:          0 LATE PREFETCHES: 1731 DROPPED PREFETCHES: 1048993
STLB PREFETCHES SAME FILL-ORIGIN LEVEL: 0 DIFFERENT FILL-ORIGIN LEVEL: 0
STLB AVERAGE MISS LATENCY: 106.722 cycles
STLB RQ	ACCESS:   67100050	FORWARD:          0	MERGED:   54685221	TO_CACHE:   12414829

STLB Hit, L1D data hit: 0
STLB Hit, L2C data hit: 0
STLB Hit, LLC data hit: 0
STLB Hit, LLC data miss: 0
STLB STLB hints to L2: 0
L1D TOTAL     ACCESS:   77172127  HIT:   76701871  MISS:     470256  HIT %:    99.3906  MISS %:    0.60936   MPKI: 2.35128
L1D LOAD      ACCESS:   14657221  HIT:   14649819  MISS:       7402  HIT %:    99.9495  MISS %:  0.0505007   MPKI: 0.03701
L1D RFO       ACCESS:    3883881  HIT:    3883881  MISS:          0  HIT %:        100  MISS %:          0   MPKI: 0
L1D PREFETCH  ACCESS:   58631025  HIT:   58168171  MISS:     462854  HIT %:    99.2106  MISS %:   0.789435   MPKI: 2.31427
L1D PREFETCH  REQUESTED:  180596083  ISSUED:  180596083  USEFUL:     462860  USELESS:          0
L1D USEFUL LOAD PREFETCHES:     462860 PREFETCH ISSUED TO LOWER LEVEL:    2465541  ACCURACY: 18.7732
L1D TIMELY PREFETCHES:     462860 LATE PREFETCHES: 4056 DROPPED PREFETCHES: 2997966
L1D PREFETCHES SAME FILL-ORIGIN LEVEL: 466910 DIFFERENT FILL-ORIGIN LEVEL: 1998631
L1D AVERAGE MISS LATENCY: 183.294 cycles
L1D RQ	ACCESS:   30096765	FORWARD:          0	MERGED:   15397414	TO_CACHE:   14699351
L1D WQ	ACCESS:    3883881	FORWARD:          0	MERGED:          0	TO_CACHE:    3883881
L1D PQ	ACCESS:  113503381	FORWARD:          0	MERGED:   46410679	TO_CACHE:   67092702

L1D UNIQUE REGIONS ACCESSED: 0
L1D REGIONS CONFLICTS: 0
L1D Cross Page Prefetch Requests: 14984609
L1D Same Page Prefetch Requests: 156520232
L1D ROI Sum of L1D PQ occupancy: 877693023
L1D PREFETCHES PUSHED FROM L2C: 0
L1I TOTAL     ACCESS:   33140790  HIT:   33140790  MISS:          0  HIT %:        100  MISS %:          0   MPKI: 0
L1I LOAD      ACCESS:   33140790  HIT:   33140790  MISS:          0  HIT %:        100  MISS %:          0   MPKI: 0
L1I PREFETCH  REQUESTED:          0  ISSUED:          0  USEFUL:          0  USELESS:          0
L1I USEFUL LOAD PREFETCHES:          0 PREFETCH ISSUED TO LOWER LEVEL:          0  ACCURACY: -nan
L1I TIMELY PREFETCHES:          0 LATE PREFETCHES: 0 DROPPED PREFETCHES: 0
L1I PREFETCHES SAME FILL-ORIGIN LEVEL: 0 DIFFERENT FILL-ORIGIN LEVEL: 0
L1I AVERAGE MISS LATENCY: -nan cycles
L1I RQ	ACCESS:   80975157	FORWARD:          0	MERGED:   47834367	TO_CACHE:   33140790

BTB TOTAL     ACCESS:   60193529  HIT:   60193525  MISS:          4  HIT %:        100  MISS %: 6.64523e-06   MPKI: 2e-05
BTB BRANCH_DIRECT_JUMP	ACCESS:          0  HIT:          0  MISS:          0
BTB BRANCH_INDIRECT	ACCESS:          0  HIT:          0  MISS:          0
BTB BRANCH_CONDITIONAL	ACCESS:   60193529  HIT:   60193525  MISS:          4
BTB BRANCH_DIRECT_CALL	ACCESS:          0  HIT:          0  MISS:          0
BTB BRANCH_INDIRECT_CALL	ACCESS:          0  HIT:          0  MISS:          0
BTB BRANCH_RETURN	ACCESS:          0  HIT:          0  MISS:          0
BTB BRANCH_OTHER ACCESS:          0  HIT:          0  MISS:          0

L2C TOTAL     ACCESS:    3104474  HIT:    2424043  MISS:     680431  HIT %:    78.0822  MISS %:    21.9178   MPKI: 3.40215
L2C LOAD      ACCESS:       3346  HIT:          0  MISS:       3346  HIT %:          0  MISS %:        100   MPKI: 0.01673
L2C DATA LOAD MPKI: 0.01673
L2C INSTRUCTION LOAD MPKI: 0
L2C PREFETCH  ACCESS:    1572801  HIT:    1105891  MISS:     466910  HIT %:    70.3135  MISS %:    29.6865   MPKI: 2.33455
L2C DATA PREFETCH MPKI: 2.33455
L2C INSTRUCTION PREFETCH MPKI: 0
L2C WRITEBACK ACCESS:     470255  HIT:     261012  MISS:     209243  HIT %:    55.5044  MISS %:    44.4956   MPKI: 1.04621
L2C LOAD TRANSLATION ACCESS:       7348  HIT:       7348  MISS:          0  HIT %:        100  MISS %:          0   MPKI: 0
L2C TRANSLATION FROM L1D PREFETCHER ACCESS:    1050724  HIT:    1049792  MISS:        932  HIT %:    99.9113  MISS %:  0.0887007   MPKI: 0.00466
L2C PREFETCH  REQUESTED:          0  ISSUED:          0  USEFUL:        932  USELESS:     466860
L2C USEFUL LOAD PREFETCHES:        932 PREFETCH ISSUED TO LOWER LEVEL:     466910  ACCURACY: 0.19961
L2C TIMELY PREFETCHES:        932 LATE PREFETCHES: 0 DROPPED PREFETCHES: 0
L2C PREFETCHES SAME FILL-ORIGIN LEVEL: 93844 DIFFERENT FILL-ORIGIN LEVEL: 0
L2C AVERAGE MISS LATENCY: 147.934 cycles
L2C RQ	ACCESS:    1061418	FORWARD:          0	MERGED:          0	TO_CACHE:    1061418
L2C WQ	ACCESS:     470256	FORWARD:          0	MERGED:          0	TO_CACHE:     470256
L2C PQ	ACCESS:    2465541	FORWARD:          0	MERGED:        344	TO_CACHE:    2465197

L2C Instructions Evicting Data 0
L2C Translations Evicting Data 930
L2C Data Evicting Data 469439
L2C Instructions Evicting Instructions 0
L2C Translations Evicting Instructions 0
L2C Data Evicting Instructions 0
L2C Instructions Evicting Translations 0
L2C Translations Evicting Translations 2
L2C Data Evicting Translations 817
L2C Dense regions hint from L2: 0
PSCL5 TOTAL     ACCESS:    1058072  HIT:    1058072  MISS:          0  HIT %:        100  MISS %:          0   MPKI: 0
PSCL5 LOAD TRANSLATION ACCESS:       7348  HIT:       7348  MISS:          0  HIT %:        100  MISS %:          0   MPKI: 0
PSCL5 TRANSLATION FROM L1D PREFETCHER ACCESS:    1050724  HIT:    1050724  MISS:          0  HIT %:        100  MISS %:          0   MPKI: 0
PSCL5 PREFETCH  REQUESTED:          0  ISSUED:          0  USEFUL:          0  USELESS:          0
PSCL5 USEFUL LOAD PREFETCHES:          0 PREFETCH ISSUED TO LOWER LEVEL:          0  ACCURACY: -nan
PSCL5 TIMELY PREFETCHES:          0 LATE PREFETCHES: 0 DROPPED PREFETCHES: 0
PSCL5 PREFETCHES SAME FILL-ORIGIN LEVEL: 0 DIFFERENT FILL-ORIGIN LEVEL: 0

PSCL4 TOTAL     ACCESS:    1058072  HIT:    1058072  MISS:          0  HIT %:        100  MISS %:          0   MPKI: 0
PSCL4 LOAD TRANSLATION ACCESS:       7348  HIT:       7348  MISS:          0  HIT %:        100  MISS %:          0   MPKI: 0
PSCL4 TRANSLATION FROM L1D PREFETCHER ACCESS:    1050724  HIT:    1050724  MISS:          0  HIT %:        100  MISS %:          0   MPKI: 0
PSCL4 PREFETCH  REQUESTED:          0  ISSUED:          0  USEFUL:          0  USELESS:          0
PSCL4 USEFUL LOAD PREFETCHES:          0 PREFETCH ISSUED TO LOWER LEVEL:          0  ACCURACY: -nan
PSCL4 TIMELY PREFETCHES:          0 LATE PREFETCHES: 0 DROPPED PREFETCHES: 0
PSCL4 PREFETCHES SAME FILL-ORIGIN LEVEL: 0 DIFFERENT FILL-ORIGIN LEVEL: 0

PSCL3 TOTAL     ACCESS:    1058072  HIT:    1058072  MISS:          0  HIT %:        100  MISS %:          0   MPKI: 0
PSCL3 LOAD TRANSLATION ACCESS:       7348  HIT:       7348  MISS:          0  HIT %:        100  MISS %:          0   MPKI: 0
PSCL3 TRANSLATION FROM L1D PREFETCHER ACCESS:    1050724  HIT:    1050724  MISS:          0  HIT %:        100  MISS %:          0   MPKI: 0
PSCL3 PREFETCH  REQUESTED:          0  ISSUED:          0  USEFUL:          0  USELESS:          0
PSCL3 USEFUL LOAD PREFETCHES:          0 PREFETCH ISSUED TO LOWER LEVEL:          0  ACCURACY: -nan
PSCL3 TIMELY PREFETCHES:          0 LATE PREFETCHES: 0 DROPPED PREFETCHES: 0
PSCL3 PREFETCHES SAME FILL-ORIGIN LEVEL: 0 DIFFERENT FILL-ORIGIN LEVEL: 0

PSCL2 TOTAL     ACCESS:    1056140  HIT:    1056126  MISS:         14  HIT %:    99.9987  MISS %: 0.00132558   MPKI: 7e-05
PSCL2 LOAD TRANSLATION ACCESS:       7348  HIT:       7334  MISS:         14  HIT %:    99.8095  MISS %:   0.190528   MPKI: 7e-05
PSCL2 TRANSLATION FROM L1D PREFETCHER ACCESS:    1048792  HIT:    1048792  MISS:          0  HIT %:        100  MISS %:          0   MPKI: 0
PSCL2 PREFETCH  REQUESTED:          0  ISSUED:          0  USEFUL:          0  USELESS:          0
PSCL2 USEFUL LOAD PREFETCHES:          0 PREFETCH ISSUED TO LOWER LEVEL:          0  ACCURACY: -nan
PSCL2 TIMELY PREFETCHES:          0 LATE PREFETCHES: 0 DROPPED PREFETCHES: 0
PSCL2 PREFETCHES SAME FILL-ORIGIN LEVEL: 0 DIFFERENT FILL-ORIGIN LEVEL: 0

LLC TOTAL     ACCESS:     941294  HIT:     422855  MISS:     518439  HIT %:    44.9227  MISS %:    55.0773   MPKI: 2.59219
LLC LOAD      ACCESS:       3346  HIT:          0  MISS:       3346  HIT %:          0  MISS %:        100   MPKI: 0.01673
LLC PREFETCH  ACCESS:     466910  HIT:          0  MISS:     466910  HIT %:          0  MISS %:        100   MPKI: 2.33455
LLC WRITEBACK ACCESS:     470106  HIT:     422855  MISS:      47251  HIT %:    89.9489  MISS %:    10.0511   MPKI: 0.236255
LLC TRANSLATION FROM L1D PREFETCHER ACCESS:        932  HIT:          0  MISS:        932  HIT %:          0  MISS %:        100   MPKI: 0.00466
LLC PREFETCH  REQUESTED:          0  ISSUED:          0  USEFUL:          2  USELESS:    1872890
LLC USEFUL LOAD PREFETCHES:          2 PREFETCH ISSUED TO LOWER LEVEL:    1867758  ACCURACY: 0.00010708
LLC TIMELY PREFETCHES:          2 LATE PREFETCHES: 0 DROPPED PREFETCHES: 0
LLC PREFETCHES SAME FILL-ORIGIN LEVEL: 0 DIFFERENT FILL-ORIGIN LEVEL: 0
LLC AVERAGE MISS LATENCY: 667.483 cycles
LLC RQ	ACCESS:      17122	FORWARD:          0	MERGED:          0	TO_CACHE:      17122
LLC WQ	ACCESS:    1880895	FORWARD:          0	MERGED:          0	TO_CACHE:    1880895
LLC PQ	ACCESS:    1867758	FORWARD:          0	MERGED:          0	TO_CACHE:    1867758

LLC Dense regions hint to LLC: 0

RAW hits: 0
Loads Generated: 30096765
Loads sent to L1D: 30096765
Stores Generated: 3883880
Stores sent to L1D: 3883881
Major fault: 0 Minor fault: 9209
Allocated PAGES: 36836

DRAM Statistics
 CHANNEL 0
 RQ ROW_BUFFER_HIT:     380954  ROW_BUFFER_MISS:    1503920
 DBUS_CONGESTED:       3729
 WQ ROW_BUFFER_HIT:    1051277  ROW_BUFFER_MISS:     835430  FULL:      31506

 AVG_CONGESTED_CYCLE: 5
 All warmup complete: 5
Channel 0 Bank busy for read cycles: 0
Channel 0 Bank busy for write cycles: 0
Channel 0
Rank 0
0banks busy for read cycles: 2028550
0banks busy for write cycles: 18024
1banks busy for read cycles: 44002410
1banks busy for write cycles: 2160106
2banks busy for read cycles: 38532818
2banks busy for write cycles: 2350145
3banks busy for read cycles: 18133423
3banks busy for write cycles: 2290979
4banks busy for read cycles: 6908943
4banks busy for write cycles: 2432524
5banks busy for read cycles: 1652359
5banks busy for write cycles: 2730133
6banks busy for read cycles: 676906
6banks busy for write cycles: 3280519
7banks busy for read cycles: 700946
7banks busy for write cycles: 6167868
8banks busy for read cycles: 3248318
8banks busy for write cycles: 36532569

CPU 0 Branch Prediction Accuracy: 99.5091% MPKI: 1.57275 Average ROB Occupancy at Mispredict: 26.2432
Branch types
NOT_BRANCH: 135934964 67.9613%
BRANCH_DIRECT_JUMP: 0 0%
BRANCH_INDIRECT: 0 0%
BRANCH_CONDITIONAL: 64083245 32.0387%
BRANCH_DIRECT_CALL: 0 0%
BRANCH_INDIRECT_CALL: 0 0%
BRANCH_RETURN: 0 0%
BRANCH_OTHER: 0 0%


CPU 1 Branch Prediction Accuracy: 99.5091% MPKI: 1.57276 Average ROB Occupancy at Mispredict: 26.2414
Branch types
NOT_BRANCH: 135930726 67.9613%
BRANCH_DIRECT_JUMP: 0 0%
BRANCH_INDIRECT: 0 0%
BRANCH_CONDITIONAL: 64081249 32.0387%
BRANCH_DIRECT_CALL: 0 0%
BRANCH_INDIRECT_CALL: 0 0%
BRANCH_RETURN: 0 0%
BRANCH_OTHER: 0 0%


CPU 2 Branch Prediction Accuracy: 99.5091% MPKI: 1.57274 Average ROB Occupancy at Mispredict: 26.2468
Branch types
NOT_BRANCH: 135926362 67.9613%
BRANCH_DIRECT_JUMP: 0 0%
BRANCH_INDIRECT: 0 0%
BRANCH_CONDITIONAL: 64079191 32.0387%
BRANCH_DIRECT_CALL: 0 0%
BRANCH_INDIRECT_CALL: 0 0%
BRANCH_RETURN: 0 0%
BRANCH_OTHER: 0 0%


CPU 3 Branch Prediction Accuracy: 99.5091% MPKI: 1.5727 Average ROB Occupancy at Mispredict: 26.2589
Branch types
NOT_BRANCH: 135922576 67.9613%
BRANCH_DIRECT_JUMP: 0 0%
BRANCH_INDIRECT: 0 0%
BRANCH_CONDITIONAL: 64077409 32.0387%
BRANCH_DIRECT_CALL: 0 0%
BRANCH_INDIRECT_CALL: 0 0%
BRANCH_RETURN: 0 0%
BRANCH_OTHER: 0 0%

DRAM PAGES: 1048576
Allocated PAGES: 36836
