
*** ChampSim Multicore Out-of-Order Simulator ***

Warmup Instructions: 50000000
Simulation Instructions: 200000000
Number of CPUs: 4
LLC sets: 8192
LLC ways: 16
Off-chip DRAM Size: 4096 MB Channels: 1 Width: 64-bit Data Rate: 6400 MT/s
CPU 0 runs ./traces/cs/nutch_phase5_core0.trace.xz
.xz
CPU 1 runs ./traces/cs/nutch_phase5_core1.trace.xz
.xz
CPU 2 runs ./traces/cs/nutch_phase5_core2.trace.xz
.xz
CPU 3 runs ./traces/cs/nutch_phase5_core3.trace.xz
.xz
BTB has LRU replacement policy
ITLB has LRU replacement policy
DTLB has LRU replacement policy
STLB has LRU replacement policy
L1I has LRU replacement policy
History Sets: 8
History Ways: 16
BERTI Size: 16
BERTI Stride Size: 8
L1D has LRU replacement policy
Initialize SRRIP state for L2C
Initialize DRRIP state for LLC
BTB has LRU replacement policy
ITLB has LRU replacement policy
DTLB has LRU replacement policy
STLB has LRU replacement policy
L1I has LRU replacement policy
History Sets: 8
History Ways: 16
BERTI Size: 16
BERTI Stride Size: 8
L1D has LRU replacement policy
Initialize SRRIP state for L2C
Initialize DRRIP state for LLC
BTB has LRU replacement policy
ITLB has LRU replacement policy
DTLB has LRU replacement policy
STLB has LRU replacement policy
L1I has LRU replacement policy
History Sets: 8
History Ways: 16
BERTI Size: 16
BERTI Stride Size: 8
L1D has LRU replacement policy
Initialize SRRIP state for L2C
Initialize DRRIP state for LLC
BTB has LRU replacement policy
ITLB has LRU replacement policy
DTLB has LRU replacement policy
STLB has LRU replacement policy
L1I has LRU replacement policy
History Sets: 8
History Ways: 16
BERTI Size: 16
BERTI Stride Size: 8
L1D has LRU replacement policy
Initialize SRRIP state for L2C
Initialize DRRIP state for LLC
UNIQUE_ASID[0] = €
UNIQUE_ASID[1] = 
Heartbeat CPU 0 instructions: 10000003 cycles: 2770761 heartbeat IPC: 3.60912 cumulative IPC: 3.60912 (Simulation time: 0 hr 1 min 56 sec) 
Heartbeat CPU 1 instructions: 10000002 cycles: 2773079 heartbeat IPC: 3.6061 cumulative IPC: 3.6061 (Simulation time: 0 hr 1 min 56 sec) 
Heartbeat CPU 3 instructions: 10000002 cycles: 2776127 heartbeat IPC: 3.60214 cumulative IPC: 3.60214 (Simulation time: 0 hr 1 min 56 sec) 
Heartbeat CPU 2 instructions: 10000002 cycles: 2815103 heartbeat IPC: 3.55227 cumulative IPC: 3.55227 (Simulation time: 0 hr 1 min 58 sec) 
Heartbeat CPU 0 instructions: 20000002 cycles: 5542420 heartbeat IPC: 3.60795 cumulative IPC: 3.60853 (Simulation time: 0 hr 3 min 42 sec) 
Heartbeat CPU 1 instructions: 20000001 cycles: 5545181 heartbeat IPC: 3.60737 cumulative IPC: 3.60674 (Simulation time: 0 hr 3 min 42 sec) 
Heartbeat CPU 3 instructions: 20000003 cycles: 5546815 heartbeat IPC: 3.60921 cumulative IPC: 3.60567 (Simulation time: 0 hr 3 min 42 sec) 
Heartbeat CPU 2 instructions: 20000001 cycles: 5586900 heartbeat IPC: 3.60777 cumulative IPC: 3.5798 (Simulation time: 0 hr 3 min 44 sec) 
Heartbeat CPU 0 instructions: 30000000 cycles: 8313937 heartbeat IPC: 3.60813 cumulative IPC: 3.6084 (Simulation time: 0 hr 5 min 48 sec) 
Heartbeat CPU 1 instructions: 30000003 cycles: 8317291 heartbeat IPC: 3.60736 cumulative IPC: 3.60694 (Simulation time: 0 hr 5 min 49 sec) 
Heartbeat CPU 3 instructions: 30000001 cycles: 8317319 heartbeat IPC: 3.60945 cumulative IPC: 3.60693 (Simulation time: 0 hr 5 min 49 sec) 
Heartbeat CPU 2 instructions: 30000003 cycles: 8357739 heartbeat IPC: 3.60902 cumulative IPC: 3.58949 (Simulation time: 0 hr 5 min 50 sec) 
Heartbeat CPU 0 instructions: 40000003 cycles: 11085545 heartbeat IPC: 3.60801 cumulative IPC: 3.6083 (Simulation time: 0 hr 7 min 59 sec) 
Heartbeat CPU 3 instructions: 40000003 cycles: 11088475 heartbeat IPC: 3.6086 cumulative IPC: 3.60735 (Simulation time: 0 hr 7 min 59 sec) 
Heartbeat CPU 1 instructions: 40000003 cycles: 11089020 heartbeat IPC: 3.60786 cumulative IPC: 3.60717 (Simulation time: 0 hr 7 min 59 sec) 
Heartbeat CPU 2 instructions: 40000001 cycles: 11127739 heartbeat IPC: 3.61011 cumulative IPC: 3.59462 (Simulation time: 0 hr 8 min 1 sec) 
Heartbeat CPU 0 instructions: 50000001 cycles: 13856068 heartbeat IPC: 3.60943 cumulative IPC: 3.60853 (Simulation time: 0 hr 10 min 54 sec) 
Heartbeat CPU 3 instructions: 50000000 cycles: 13859735 heartbeat IPC: 3.60847 cumulative IPC: 3.60757 (Simulation time: 0 hr 10 min 54 sec) 
Heartbeat CPU 1 instructions: 50000001 cycles: 13860681 heartbeat IPC: 3.60794 cumulative IPC: 3.60733 (Simulation time: 0 hr 10 min 54 sec) 
Heartbeat CPU 2 instructions: 50000003 cycles: 13897438 heartbeat IPC: 3.6105 cumulative IPC: 3.59779 (Simulation time: 0 hr 10 min 56 sec) 

Warmup complete CPU 0 instructions: 50149291 cycles: 13897438 (Simulation time: 0 hr 10 min 56 sec) 
Warmup complete CPU 1 instructions: 50132576 cycles: 13897438 (Simulation time: 0 hr 10 min 56 sec) 
Warmup complete CPU 2 instructions: 50000003 cycles: 13897438 (Simulation time: 0 hr 10 min 56 sec) 
Warmup complete CPU 3 instructions: 50136032 cycles: 13897437 (Simulation time: 0 hr 10 min 56 sec) 

Heartbeat CPU 1 instructions: 60000000 cycles: 19701845 heartbeat IPC: 1.71199 cumulative IPC: 1.69999 (Simulation time: 0 hr 13 min 49 sec) 
Heartbeat CPU 3 instructions: 60000002 cycles: 19751861 heartbeat IPC: 1.69718 cumulative IPC: 1.68487 (Simulation time: 0 hr 13 min 51 sec) 
Heartbeat CPU 0 instructions: 60000001 cycles: 20292567 heartbeat IPC: 1.55364 cumulative IPC: 1.54035 (Simulation time: 0 hr 14 min 11 sec) 
Heartbeat CPU 2 instructions: 60000001 cycles: 23572938 heartbeat IPC: 1.03354 cumulative IPC: 1.03354 (Simulation time: 0 hr 16 min 11 sec) 
Heartbeat CPU 1 instructions: 70000002 cycles: 26112014 heartbeat IPC: 1.56002 cumulative IPC: 1.62653 (Simulation time: 0 hr 17 min 25 sec) 
Heartbeat CPU 3 instructions: 70000003 cycles: 26506065 heartbeat IPC: 1.48056 cumulative IPC: 1.57543 (Simulation time: 0 hr 17 min 29 sec) 
Heartbeat CPU 0 instructions: 70000000 cycles: 26641499 heartbeat IPC: 1.57507 cumulative IPC: 1.55764 (Simulation time: 0 hr 17 min 30 sec) 
Heartbeat CPU 2 instructions: 70000000 cycles: 34161301 heartbeat IPC: 0.944433 cumulative IPC: 0.986978 (Simulation time: 0 hr 19 min 21 sec) 
Heartbeat CPU 0 instructions: 80000000 cycles: 38182132 heartbeat IPC: 0.866504 cumulative IPC: 1.2292 (Simulation time: 0 hr 20 min 20 sec) 
Heartbeat CPU 1 instructions: 80000003 cycles: 38226381 heartbeat IPC: 0.825466 cumulative IPC: 1.22765 (Simulation time: 0 hr 20 min 21 sec) 
Heartbeat CPU 3 instructions: 80000003 cycles: 38489869 heartbeat IPC: 0.83446 cumulative IPC: 1.21436 (Simulation time: 0 hr 20 min 25 sec) 
Heartbeat CPU 2 instructions: 80000002 cycles: 45572230 heartbeat IPC: 0.876353 cumulative IPC: 0.947125 (Simulation time: 0 hr 22 min 34 sec) 
Heartbeat CPU 1 instructions: 90000001 cycles: 49354952 heartbeat IPC: 0.898588 cumulative IPC: 1.12437 (Simulation time: 0 hr 23 min 37 sec) 
Heartbeat CPU 0 instructions: 90000002 cycles: 49649521 heartbeat IPC: 0.872038 cumulative IPC: 1.11464 (Simulation time: 0 hr 23 min 43 sec) 
Heartbeat CPU 3 instructions: 90000001 cycles: 49743232 heartbeat IPC: 0.888623 cumulative IPC: 1.1121 (Simulation time: 0 hr 23 min 45 sec) 
Heartbeat CPU 2 instructions: 90000000 cycles: 57344622 heartbeat IPC: 0.849445 cumulative IPC: 0.920658 (Simulation time: 0 hr 25 min 41 sec) 
Heartbeat CPU 0 instructions: 100000000 cycles: 60367795 heartbeat IPC: 0.932986 cumulative IPC: 1.07274 (Simulation time: 0 hr 26 min 42 sec) 
Heartbeat CPU 1 instructions: 100000001 cycles: 60786730 heartbeat IPC: 0.874755 cumulative IPC: 1.06351 (Simulation time: 0 hr 26 min 52 sec) 
Heartbeat CPU 3 instructions: 100000000 cycles: 61272387 heartbeat IPC: 0.867366 cumulative IPC: 1.05254 (Simulation time: 0 hr 27 min 4 sec) 
Heartbeat CPU 0 instructions: 110000000 cycles: 66312910 heartbeat IPC: 1.68205 cumulative IPC: 1.14185 (Simulation time: 0 hr 30 min 0 sec) 
Heartbeat CPU 1 instructions: 110000000 cycles: 66663221 heartbeat IPC: 1.7017 cumulative IPC: 1.13459 (Simulation time: 0 hr 30 min 12 sec) 
Heartbeat CPU 3 instructions: 110000000 cycles: 67274370 heartbeat IPC: 1.66612 cumulative IPC: 1.12153 (Simulation time: 0 hr 30 min 34 sec) 
Heartbeat CPU 2 instructions: 100000000 cycles: 68766825 heartbeat IPC: 0.875488 cumulative IPC: 0.911255 (Simulation time: 0 hr 31 min 15 sec) 
Heartbeat CPU 0 instructions: 120000000 cycles: 72281286 heartbeat IPC: 1.6755 cumulative IPC: 1.1964 (Simulation time: 0 hr 33 min 10 sec) 
Heartbeat CPU 1 instructions: 120000000 cycles: 72623432 heartbeat IPC: 1.67779 cumulative IPC: 1.18972 (Simulation time: 0 hr 33 min 24 sec) 
Heartbeat CPU 3 instructions: 120000000 cycles: 73202489 heartbeat IPC: 1.68688 cumulative IPC: 1.17804 (Simulation time: 0 hr 33 min 47 sec) 
Heartbeat CPU 2 instructions: 110000000 cycles: 76663189 heartbeat IPC: 1.26641 cumulative IPC: 0.955935 (Simulation time: 0 hr 36 min 0 sec) 
Heartbeat CPU 0 instructions: 130000001 cycles: 78196008 heartbeat IPC: 1.6907 cumulative IPC: 1.24187 (Simulation time: 0 hr 36 min 55 sec) 
Heartbeat CPU 1 instructions: 130000002 cycles: 78555868 heartbeat IPC: 1.68565 cumulative IPC: 1.23522 (Simulation time: 0 hr 37 min 4 sec) 
Heartbeat CPU 3 instructions: 130000002 cycles: 79117053 heartbeat IPC: 1.69074 cumulative IPC: 1.22454 (Simulation time: 0 hr 37 min 18 sec) 
Heartbeat CPU 2 instructions: 120000003 cycles: 82606272 heartbeat IPC: 1.68263 cumulative IPC: 1.01879 (Simulation time: 0 hr 39 min 26 sec) 
Heartbeat CPU 0 instructions: 140000000 cycles: 84170266 heartbeat IPC: 1.67385 cumulative IPC: 1.2786 (Simulation time: 0 hr 40 min 22 sec) 
Heartbeat CPU 1 instructions: 140000000 cycles: 84497676 heartbeat IPC: 1.68299 cumulative IPC: 1.27291 (Simulation time: 0 hr 40 min 35 sec) 
Heartbeat CPU 3 instructions: 140000000 cycles: 85087392 heartbeat IPC: 1.67495 cumulative IPC: 1.26231 (Simulation time: 0 hr 40 min 52 sec) 
Heartbeat CPU 2 instructions: 130000001 cycles: 88521167 heartbeat IPC: 1.69065 cumulative IPC: 1.07205 (Simulation time: 0 hr 42 min 49 sec) 
Heartbeat CPU 0 instructions: 150000002 cycles: 90085318 heartbeat IPC: 1.6906 cumulative IPC: 1.31059 (Simulation time: 0 hr 43 min 51 sec) 
Heartbeat CPU 1 instructions: 150000002 cycles: 90438723 heartbeat IPC: 1.68321 cumulative IPC: 1.30475 (Simulation time: 0 hr 44 min 5 sec) 
Heartbeat CPU 3 instructions: 150000003 cycles: 91025991 heartbeat IPC: 1.6839 cumulative IPC: 1.29477 (Simulation time: 0 hr 44 min 27 sec) 
Heartbeat CPU 2 instructions: 140000002 cycles: 94474804 heartbeat IPC: 1.67965 cumulative IPC: 1.11694 (Simulation time: 0 hr 46 min 17 sec) 
Heartbeat CPU 1 instructions: 160000000 cycles: 96441845 heartbeat IPC: 1.6658 cumulative IPC: 1.33101 (Simulation time: 0 hr 47 min 19 sec) 
Heartbeat CPU 0 instructions: 160000000 cycles: 96474680 heartbeat IPC: 1.5651 cumulative IPC: 1.33028 (Simulation time: 0 hr 47 min 20 sec) 
Heartbeat CPU 3 instructions: 160000001 cycles: 96959663 heartbeat IPC: 1.6853 cumulative IPC: 1.32267 (Simulation time: 0 hr 47 min 35 sec) 
Heartbeat CPU 2 instructions: 150000000 cycles: 100419125 heartbeat IPC: 1.68228 cumulative IPC: 1.15578 (Simulation time: 0 hr 49 min 29 sec) 
Heartbeat CPU 0 instructions: 170000003 cycles: 102838940 heartbeat IPC: 1.57128 cumulative IPC: 1.34752 (Simulation time: 0 hr 50 min 43 sec) 
Heartbeat CPU 1 instructions: 170000000 cycles: 102953301 heartbeat IPC: 1.53575 cumulative IPC: 1.34598 (Simulation time: 0 hr 50 min 44 sec) 
Heartbeat CPU 3 instructions: 170000001 cycles: 103549953 heartbeat IPC: 1.51738 cumulative IPC: 1.33698 (Simulation time: 0 hr 50 min 51 sec) 
Heartbeat CPU 2 instructions: 160000001 cycles: 110131688 heartbeat IPC: 1.02959 cumulative IPC: 1.14304 (Simulation time: 0 hr 52 min 38 sec) 
Heartbeat CPU 0 instructions: 180000000 cycles: 114177430 heartbeat IPC: 0.881951 cumulative IPC: 1.29488 (Simulation time: 0 hr 53 min 32 sec) 
Heartbeat CPU 1 instructions: 180000002 cycles: 114753461 heartbeat IPC: 0.847446 cumulative IPC: 1.28765 (Simulation time: 0 hr 53 min 40 sec) 
Heartbeat CPU 3 instructions: 180000001 cycles: 115192915 heartbeat IPC: 0.858888 cumulative IPC: 1.28203 (Simulation time: 0 hr 53 min 48 sec) 
Heartbeat CPU 2 instructions: 170000003 cycles: 120970317 heartbeat IPC: 0.922626 cumulative IPC: 1.12073 (Simulation time: 0 hr 55 min 24 sec) 
Heartbeat CPU 0 instructions: 190000000 cycles: 125669892 heartbeat IPC: 0.870136 cumulative IPC: 1.25121 (Simulation time: 0 hr 56 min 56 sec) 
Heartbeat CPU 1 instructions: 190000001 cycles: 125934279 heartbeat IPC: 0.894389 cumulative IPC: 1.24841 (Simulation time: 0 hr 57 min 0 sec) 
Heartbeat CPU 3 instructions: 190000001 cycles: 126496763 heartbeat IPC: 0.884655 cumulative IPC: 1.24214 (Simulation time: 0 hr 57 min 8 sec) 
Heartbeat CPU 2 instructions: 180000002 cycles: 132543332 heartbeat IPC: 0.864079 cumulative IPC: 1.0957 (Simulation time: 0 hr 58 min 59 sec) 
Heartbeat CPU 0 instructions: 200000000 cycles: 136312977 heartbeat IPC: 0.939577 cumulative IPC: 1.22412 (Simulation time: 1 hr 0 min 13 sec) 
Heartbeat CPU 1 instructions: 200000003 cycles: 137266951 heartbeat IPC: 0.882405 cumulative IPC: 1.21478 (Simulation time: 1 hr 0 min 35 sec) 
Heartbeat CPU 3 instructions: 200000000 cycles: 137747718 heartbeat IPC: 0.888813 cumulative IPC: 1.21004 (Simulation time: 1 hr 0 min 48 sec) 
Heartbeat CPU 0 instructions: 210000002 cycles: 142259249 heartbeat IPC: 1.68173 cumulative IPC: 1.24531 (Simulation time: 1 hr 3 min 11 sec) 
Heartbeat CPU 1 instructions: 210000003 cycles: 143156722 heartbeat IPC: 1.69786 cumulative IPC: 1.2368 (Simulation time: 1 hr 3 min 31 sec) 
Heartbeat CPU 3 instructions: 210000002 cycles: 143743059 heartbeat IPC: 1.66796 cumulative IPC: 1.23118 (Simulation time: 1 hr 3 min 46 sec) 
Heartbeat CPU 2 instructions: 190000003 cycles: 143811513 heartbeat IPC: 0.887455 cumulative IPC: 1.07764 (Simulation time: 1 hr 3 min 48 sec) 
Heartbeat CPU 0 instructions: 220000000 cycles: 148221487 heartbeat IPC: 1.67722 cumulative IPC: 1.26448 (Simulation time: 1 hr 5 min 54 sec) 
Heartbeat CPU 1 instructions: 220000000 cycles: 149111521 heartbeat IPC: 1.67932 cumulative IPC: 1.25628 (Simulation time: 1 hr 6 min 22 sec) 
Heartbeat CPU 3 instructions: 220000000 cycles: 149669387 heartbeat IPC: 1.68739 cumulative IPC: 1.2511 (Simulation time: 1 hr 6 min 35 sec) 
Heartbeat CPU 0 instructions: 230000001 cycles: 154136646 heartbeat IPC: 1.69057 cumulative IPC: 1.28246 (Simulation time: 1 hr 8 min 17 sec) 
Heartbeat CPU 2 instructions: 200000000 cycles: 154933938 heartbeat IPC: 0.899084 cumulative IPC: 1.06355 (Simulation time: 1 hr 8 min 34 sec) 
Heartbeat CPU 1 instructions: 230000002 cycles: 155044018 heartbeat IPC: 1.68563 cumulative IPC: 1.27433 (Simulation time: 1 hr 8 min 36 sec) 
Heartbeat CPU 3 instructions: 230000000 cycles: 155583288 heartbeat IPC: 1.69093 cumulative IPC: 1.26946 (Simulation time: 1 hr 8 min 48 sec) 
Heartbeat CPU 0 instructions: 240000001 cycles: 160109375 heartbeat IPC: 1.67428 cumulative IPC: 1.29846 (Simulation time: 1 hr 11 min 6 sec) 
Heartbeat CPU 1 instructions: 240000003 cycles: 160985249 heartbeat IPC: 1.68315 cumulative IPC: 1.29084 (Simulation time: 1 hr 11 min 29 sec) 
Heartbeat CPU 3 instructions: 240000003 cycles: 161552021 heartbeat IPC: 1.6754 cumulative IPC: 1.28587 (Simulation time: 1 hr 11 min 44 sec) 
Heartbeat CPU 2 instructions: 210000001 cycles: 162496741 heartbeat IPC: 1.32226 cumulative IPC: 1.07672 (Simulation time: 1 hr 12 min 7 sec) 
Heartbeat CPU 0 instructions: 250000003 cycles: 166024023 heartbeat IPC: 1.69072 cumulative IPC: 1.31371 (Simulation time: 1 hr 14 min 6 sec) 
Finished CPU 0 instructions: 200000000 cycles: 152214903 cumulative IPC: 1.31393 (Simulation time: 1 hr 14 min 10 sec) 
Heartbeat CPU 1 instructions: 250000000 cycles: 166926324 heartbeat IPC: 1.6832 cumulative IPC: 1.30608 (Simulation time: 1 hr 14 min 42 sec) 
Finished CPU 1 instructions: 200000000 cycles: 153107556 cumulative IPC: 1.30627 (Simulation time: 1 hr 14 min 45 sec) 
Heartbeat CPU 3 instructions: 250000001 cycles: 167492639 heartbeat IPC: 1.68333 cumulative IPC: 1.30124 (Simulation time: 1 hr 15 min 5 sec) 
Finished CPU 3 instructions: 200000001 cycles: 153675872 cumulative IPC: 1.30144 (Simulation time: 1 hr 15 min 8 sec) 
Heartbeat CPU 2 instructions: 220000000 cycles: 168439093 heartbeat IPC: 1.68284 cumulative IPC: 1.10003 (Simulation time: 1 hr 15 min 33 sec) 
Heartbeat CPU 0 instructions: 260000001 cycles: 172365538 heartbeat IPC: 1.57691 cumulative IPC: 1.32425 (Simulation time: 1 hr 17 min 36 sec) 
Heartbeat CPU 1 instructions: 260000000 cycles: 172774310 heartbeat IPC: 1.70999 cumulative IPC: 1.32094 (Simulation time: 1 hr 17 min 47 sec) 
Heartbeat CPU 3 instructions: 260000002 cycles: 173426214 heartbeat IPC: 1.68532 cumulative IPC: 1.31552 (Simulation time: 1 hr 18 min 4 sec) 
Heartbeat CPU 2 instructions: 230000003 cycles: 174353132 heartbeat IPC: 1.69089 cumulative IPC: 1.1218 (Simulation time: 1 hr 18 min 28 sec) 
Heartbeat CPU 0 instructions: 270000000 cycles: 178690252 heartbeat IPC: 1.5811 cumulative IPC: 1.3341 (Simulation time: 1 hr 20 min 32 sec) 
Heartbeat CPU 1 instructions: 270000000 cycles: 178980669 heartbeat IPC: 1.61125 cumulative IPC: 1.33186 (Simulation time: 1 hr 20 min 42 sec) 
Heartbeat CPU 3 instructions: 270000000 cycles: 180012089 heartbeat IPC: 1.5184 cumulative IPC: 1.32357 (Simulation time: 1 hr 21 min 3 sec) 
Heartbeat CPU 2 instructions: 240000002 cycles: 180304563 heartbeat IPC: 1.68027 cumulative IPC: 1.14178 (Simulation time: 1 hr 21 min 9 sec) 
Heartbeat CPU 2 instructions: 250000003 cycles: 186247225 heartbeat IPC: 1.68275 cumulative IPC: 1.16043 (Simulation time: 1 hr 23 min 22 sec) 
Finished CPU 2 instructions: 200000000 cycles: 172349787 cumulative IPC: 1.16043 (Simulation time: 1 hr 23 min 22 sec) 

ChampSim completed all CPUs

Total Simulation Statistics (not including warmup)

CPU 0 cumulative IPC: 1.3136 instructions: 226398058 cycles: 172349787
ITLB TOTAL     ACCESS:   37348941  HIT:   36569040  MISS:     779901  HIT %:    97.9119  MISS %:    2.08815   MPKI: 3.44482
ITLB LOAD      ACCESS:          0  HIT:          0  MISS:          0  HIT %:       -nan  MISS %:       -nan   MPKI: 0
ITLB RFO       ACCESS:          0  HIT:          0  MISS:          0  HIT %:       -nan  MISS %:       -nan   MPKI: 0
ITLB PREFETCH  ACCESS:          0  HIT:          0  MISS:          0  HIT %:       -nan  MISS %:       -nan   MPKI: 0
ITLB WRITEBACK ACCESS:          0  HIT:          0  MISS:          0  HIT %:       -nan  MISS %:       -nan   MPKI: 0
DTLB TOTAL     ACCESS:   28459866  HIT:   14145653  MISS:   14314213  HIT %:    49.7039  MISS %:    50.2961   MPKI: 63.2259
DTLB LOAD      ACCESS:          0  HIT:          0  MISS:          0  HIT %:       -nan  MISS %:       -nan   MPKI: 0
DTLB RFO       ACCESS:          0  HIT:          0  MISS:          0  HIT %:       -nan  MISS %:       -nan   MPKI: 0
DTLB PREFETCH  ACCESS:          0  HIT:          0  MISS:          0  HIT %:       -nan  MISS %:       -nan   MPKI: 0
DTLB WRITEBACK ACCESS:          0  HIT:          0  MISS:          0  HIT %:       -nan  MISS %:       -nan   MPKI: 0
STLB TOTAL     ACCESS:   15264534  HIT:   13569993  MISS:    1694541  HIT %:    88.8988  MISS %:    11.1012   MPKI: 7.48479
STLB LOAD      ACCESS:          0  HIT:          0  MISS:          0  HIT %:       -nan  MISS %:       -nan   MPKI: 0
STLB RFO       ACCESS:          0  HIT:          0  MISS:          0  HIT %:       -nan  MISS %:       -nan   MPKI: 0
STLB PREFETCH  ACCESS:          0  HIT:          0  MISS:          0  HIT %:       -nan  MISS %:       -nan   MPKI: 0
STLB WRITEBACK ACCESS:          0  HIT:          0  MISS:          0  HIT %:       -nan  MISS %:       -nan   MPKI: 0
L1D TOTAL     ACCESS:   37853538  HIT:   37597783  MISS:     255755  HIT %:    99.3244  MISS %:   0.675644   MPKI: 1.12967
L1D LOAD      ACCESS:   30121950  HIT:   29937636  MISS:     184314  HIT %:    99.3881  MISS %:   0.611893   MPKI: 0.814115
L1D RFO       ACCESS:    7375091  HIT:    7330210  MISS:      44881  HIT %:    99.3915  MISS %:   0.608548   MPKI: 0.198239
L1D PREFETCH  ACCESS:     356497  HIT:     329937  MISS:      26560  HIT %:    92.5497  MISS %:    7.45027   MPKI: 0.117315
L1D WRITEBACK ACCESS:          0  HIT:          0  MISS:          0  HIT %:       -nan  MISS %:       -nan   MPKI: 0
L1I TOTAL     ACCESS:   44574067  HIT:   44102607  MISS:     471460  HIT %:    98.9423  MISS %:     1.0577   MPKI: 2.08244
L1I LOAD      ACCESS:   44574067  HIT:   44102607  MISS:     471460  HIT %:    98.9423  MISS %:     1.0577   MPKI: 2.08244
L1I RFO       ACCESS:          0  HIT:          0  MISS:          0  HIT %:       -nan  MISS %:       -nan   MPKI: 0
L1I PREFETCH  ACCESS:          0  HIT:          0  MISS:          0  HIT %:       -nan  MISS %:       -nan   MPKI: 0
L1I WRITEBACK ACCESS:          0  HIT:          0  MISS:          0  HIT %:       -nan  MISS %:       -nan   MPKI: 0
L2C TOTAL     ACCESS:    2853043  HIT:    2604867  MISS:     248176  HIT %:    91.3014  MISS %:    8.69864   MPKI: 1.09619
L2C LOAD      ACCESS:     652668  HIT:     507449  MISS:     145219  HIT %:    77.7499  MISS %:    22.2501   MPKI: 0.641432
L2C RFO       ACCESS:      44865  HIT:      21721  MISS:      23144  HIT %:    48.4141  MISS %:    51.5859   MPKI: 0.102227
L2C PREFETCH  ACCESS:     222904  HIT:     165994  MISS:      56910  HIT %:    74.4688  MISS %:    25.5312   MPKI: 0.251371
L2C WRITEBACK ACCESS:     157253  HIT:     141571  MISS:      15682  HIT %:    90.0275  MISS %:    9.97246   MPKI: 0.0692674
PSCL5 TOTAL     ACCESS:    1704156  HIT:    1704156  MISS:          0  HIT %:        100  MISS %:          0   MPKI: 0
PSCL5 LOAD      ACCESS:          0  HIT:          0  MISS:          0  HIT %:       -nan  MISS %:       -nan   MPKI: 0
PSCL5 RFO       ACCESS:          0  HIT:          0  MISS:          0  HIT %:       -nan  MISS %:       -nan   MPKI: 0
PSCL5 PREFETCH  ACCESS:          0  HIT:          0  MISS:          0  HIT %:       -nan  MISS %:       -nan   MPKI: 0
PSCL5 WRITEBACK ACCESS:          0  HIT:          0  MISS:          0  HIT %:       -nan  MISS %:       -nan   MPKI: 0
PSCL4 TOTAL     ACCESS:    1699724  HIT:    1699608  MISS:        116  HIT %:    99.9932  MISS %: 0.00682464   MPKI: 0.000512372
PSCL4 LOAD      ACCESS:          0  HIT:          0  MISS:          0  HIT %:       -nan  MISS %:       -nan   MPKI: 0
PSCL4 RFO       ACCESS:          0  HIT:          0  MISS:          0  HIT %:       -nan  MISS %:       -nan   MPKI: 0
PSCL4 PREFETCH  ACCESS:          0  HIT:          0  MISS:          0  HIT %:       -nan  MISS %:       -nan   MPKI: 0
PSCL4 WRITEBACK ACCESS:          0  HIT:          0  MISS:          0  HIT %:       -nan  MISS %:       -nan   MPKI: 0
PSCL3 TOTAL     ACCESS:    1696574  HIT:    1694206  MISS:       2368  HIT %:    99.8604  MISS %:   0.139575   MPKI: 0.0104595
PSCL3 LOAD      ACCESS:          0  HIT:          0  MISS:          0  HIT %:       -nan  MISS %:       -nan   MPKI: 0
PSCL3 RFO       ACCESS:          0  HIT:          0  MISS:          0  HIT %:       -nan  MISS %:       -nan   MPKI: 0
PSCL3 PREFETCH  ACCESS:          0  HIT:          0  MISS:          0  HIT %:       -nan  MISS %:       -nan   MPKI: 0
PSCL3 WRITEBACK ACCESS:          0  HIT:          0  MISS:          0  HIT %:       -nan  MISS %:       -nan   MPKI: 0
PSCL2 TOTAL     ACCESS:    1704040  HIT:    1635168  MISS:      68872  HIT %:    95.9583  MISS %:    4.04169   MPKI: 0.304208
PSCL2 LOAD      ACCESS:          0  HIT:          0  MISS:          0  HIT %:       -nan  MISS %:       -nan   MPKI: 0
PSCL2 RFO       ACCESS:          0  HIT:          0  MISS:          0  HIT %:       -nan  MISS %:       -nan   MPKI: 0
PSCL2 PREFETCH  ACCESS:          0  HIT:          0  MISS:          0  HIT %:       -nan  MISS %:       -nan   MPKI: 0
PSCL2 WRITEBACK ACCESS:          0  HIT:          0  MISS:          0  HIT %:       -nan  MISS %:       -nan   MPKI: 0
LLC TOTAL     ACCESS:     355459  HIT:     173081  MISS:     182378  HIT %:    48.6923  MISS %:    51.3077   MPKI: 0.805563
LLC LOAD      ACCESS:     141434  HIT:      44503  MISS:      96931  HIT %:    31.4656  MISS %:    68.5344   MPKI: 0.428144
LLC RFO       ACCESS:      23143  HIT:       3515  MISS:      19628  HIT %:    15.1882  MISS %:    84.8118   MPKI: 0.0866969
LLC PREFETCH  ACCESS:      60695  HIT:       6490  MISS:      54205  HIT %:    10.6928  MISS %:    89.3072   MPKI: 0.239423
LLC WRITEBACK ACCESS:     122966  HIT:     114321  MISS:       8645  HIT %:    92.9696  MISS %:     7.0304   MPKI: 0.038185

RAW hits: 3189592
Loads Generated: 50709622
Loads sent to L1D: 47520030
Stores Generated: 8851119
Stores sent to L1D: 8851117

CPU 1 cumulative IPC: 1.31199 instructions: 226121248 cycles: 172349787
ITLB TOTAL     ACCESS:   37249247  HIT:   36396600  MISS:     852647  HIT %:     97.711  MISS %:    2.28903   MPKI: 3.77075
ITLB LOAD      ACCESS:          0  HIT:          0  MISS:          0  HIT %:       -nan  MISS %:       -nan   MPKI: 0
ITLB RFO       ACCESS:          0  HIT:          0  MISS:          0  HIT %:       -nan  MISS %:       -nan   MPKI: 0
ITLB PREFETCH  ACCESS:          0  HIT:          0  MISS:          0  HIT %:       -nan  MISS %:       -nan   MPKI: 0
ITLB WRITEBACK ACCESS:          0  HIT:          0  MISS:          0  HIT %:       -nan  MISS %:       -nan   MPKI: 0
DTLB TOTAL     ACCESS:   28541112  HIT:   13747656  MISS:   14793456  HIT %:    48.1679  MISS %:    51.8321   MPKI: 65.4227
DTLB LOAD      ACCESS:          0  HIT:          0  MISS:          0  HIT %:       -nan  MISS %:       -nan   MPKI: 0
DTLB RFO       ACCESS:          0  HIT:          0  MISS:          0  HIT %:       -nan  MISS %:       -nan   MPKI: 0
DTLB PREFETCH  ACCESS:          0  HIT:          0  MISS:          0  HIT %:       -nan  MISS %:       -nan   MPKI: 0
DTLB WRITEBACK ACCESS:          0  HIT:          0  MISS:          0  HIT %:       -nan  MISS %:       -nan   MPKI: 0
STLB TOTAL     ACCESS:   15754306  HIT:   13920371  MISS:    1833935  HIT %:    88.3592  MISS %:    11.6408   MPKI: 8.11041
STLB LOAD      ACCESS:          0  HIT:          0  MISS:          0  HIT %:       -nan  MISS %:       -nan   MPKI: 0
STLB RFO       ACCESS:          0  HIT:          0  MISS:          0  HIT %:       -nan  MISS %:       -nan   MPKI: 0
STLB PREFETCH  ACCESS:          0  HIT:          0  MISS:          0  HIT %:       -nan  MISS %:       -nan   MPKI: 0
STLB WRITEBACK ACCESS:          0  HIT:          0  MISS:          0  HIT %:       -nan  MISS %:       -nan   MPKI: 0
L1D TOTAL     ACCESS:   37902740  HIT:   37636689  MISS:     266051  HIT %:    99.2981  MISS %:   0.701931   MPKI: 1.17659
L1D LOAD      ACCESS:   30902711  HIT:   30701319  MISS:     201392  HIT %:    99.3483  MISS %:   0.651697   MPKI: 0.890637
L1D RFO       ACCESS:    6756928  HIT:    6717547  MISS:      39381  HIT %:    99.4172  MISS %:   0.582824   MPKI: 0.174159
L1D PREFETCH  ACCESS:     243101  HIT:     217823  MISS:      25278  HIT %:    89.6019  MISS %:    10.3981   MPKI: 0.11179
L1D WRITEBACK ACCESS:          0  HIT:          0  MISS:          0  HIT %:       -nan  MISS %:       -nan   MPKI: 0
L1I TOTAL     ACCESS:   44282162  HIT:   43839243  MISS:     442919  HIT %:    98.9998  MISS %:    1.00022   MPKI: 1.95877
L1I LOAD      ACCESS:   44282162  HIT:   43839243  MISS:     442919  HIT %:    98.9998  MISS %:    1.00022   MPKI: 1.95877
L1I RFO       ACCESS:          0  HIT:          0  MISS:          0  HIT %:       -nan  MISS %:       -nan   MPKI: 0
L1I PREFETCH  ACCESS:          0  HIT:          0  MISS:          0  HIT %:       -nan  MISS %:       -nan   MPKI: 0
L1I WRITEBACK ACCESS:          0  HIT:          0  MISS:          0  HIT %:       -nan  MISS %:       -nan   MPKI: 0
L2C TOTAL     ACCESS:    2882986  HIT:    2571189  MISS:     311797  HIT %:    89.1849  MISS %:    10.8151   MPKI: 1.37889
L2C LOAD      ACCESS:     641690  HIT:     440070  MISS:     201620  HIT %:    68.5798  MISS %:    31.4202   MPKI: 0.891646
L2C RFO       ACCESS:      39376  HIT:      15122  MISS:      24254  HIT %:    38.4041  MISS %:    61.5959   MPKI: 0.107261
L2C PREFETCH  ACCESS:     132812  HIT:      77426  MISS:      55386  HIT %:    58.2974  MISS %:    41.7026   MPKI: 0.244939
L2C WRITEBACK ACCESS:     160855  HIT:     141583  MISS:      19272  HIT %:     88.019  MISS %:     11.981   MPKI: 0.0852286
PSCL5 TOTAL     ACCESS:    1844016  HIT:    1844016  MISS:          0  HIT %:        100  MISS %:          0   MPKI: 0
PSCL5 LOAD      ACCESS:          0  HIT:          0  MISS:          0  HIT %:       -nan  MISS %:       -nan   MPKI: 0
PSCL5 RFO       ACCESS:          0  HIT:          0  MISS:          0  HIT %:       -nan  MISS %:       -nan   MPKI: 0
PSCL5 PREFETCH  ACCESS:          0  HIT:          0  MISS:          0  HIT %:       -nan  MISS %:       -nan   MPKI: 0
PSCL5 WRITEBACK ACCESS:          0  HIT:          0  MISS:          0  HIT %:       -nan  MISS %:       -nan   MPKI: 0
PSCL4 TOTAL     ACCESS:    1829869  HIT:    1829588  MISS:        281  HIT %:    99.9846  MISS %:  0.0153563   MPKI: 0.0012427
PSCL4 LOAD      ACCESS:          0  HIT:          0  MISS:          0  HIT %:       -nan  MISS %:       -nan   MPKI: 0
PSCL4 RFO       ACCESS:          0  HIT:          0  MISS:          0  HIT %:       -nan  MISS %:       -nan   MPKI: 0
PSCL4 PREFETCH  ACCESS:          0  HIT:          0  MISS:          0  HIT %:       -nan  MISS %:       -nan   MPKI: 0
PSCL4 WRITEBACK ACCESS:          0  HIT:          0  MISS:          0  HIT %:       -nan  MISS %:       -nan   MPKI: 0
PSCL3 TOTAL     ACCESS:    1831225  HIT:    1829029  MISS:       2196  HIT %:    99.8801  MISS %:    0.11992   MPKI: 0.0097116
PSCL3 LOAD      ACCESS:          0  HIT:          0  MISS:          0  HIT %:       -nan  MISS %:       -nan   MPKI: 0
PSCL3 RFO       ACCESS:          0  HIT:          0  MISS:          0  HIT %:       -nan  MISS %:       -nan   MPKI: 0
PSCL3 PREFETCH  ACCESS:          0  HIT:          0  MISS:          0  HIT %:       -nan  MISS %:       -nan   MPKI: 0
PSCL3 WRITEBACK ACCESS:          0  HIT:          0  MISS:          0  HIT %:       -nan  MISS %:       -nan   MPKI: 0
PSCL2 TOTAL     ACCESS:    1843862  HIT:    1781934  MISS:      61928  HIT %:    96.6414  MISS %:     3.3586   MPKI: 0.273871
PSCL2 LOAD      ACCESS:          0  HIT:          0  MISS:          0  HIT %:       -nan  MISS %:       -nan   MPKI: 0
PSCL2 RFO       ACCESS:          0  HIT:          0  MISS:          0  HIT %:       -nan  MISS %:       -nan   MPKI: 0
PSCL2 PREFETCH  ACCESS:          0  HIT:          0  MISS:          0  HIT %:       -nan  MISS %:       -nan   MPKI: 0
PSCL2 WRITEBACK ACCESS:          0  HIT:          0  MISS:          0  HIT %:       -nan  MISS %:       -nan   MPKI: 0
LLC TOTAL     ACCESS:     428602  HIT:     233462  MISS:     195140  HIT %:    54.4706  MISS %:    45.5294   MPKI: 0.862988
LLC LOAD      ACCESS:     200594  HIT:      84990  MISS:     115604  HIT %:    42.3692  MISS %:    57.6308   MPKI: 0.511248
LLC RFO       ACCESS:      24254  HIT:       4773  MISS:      19481  HIT %:    19.6792  MISS %:    80.3208   MPKI: 0.0861529
LLC PREFETCH  ACCESS:      56410  HIT:       8828  MISS:      47582  HIT %:    15.6497  MISS %:    84.3503   MPKI: 0.210427
LLC WRITEBACK ACCESS:     136079  HIT:     126932  MISS:       9147  HIT %:    93.2782  MISS %:    6.72183   MPKI: 0.0404517

RAW hits: 2892009
Loads Generated: 51628001
Loads sent to L1D: 48735993
Stores Generated: 8170886
Stores sent to L1D: 8170888

CPU 2 cumulative IPC: 1.16043 instructions: 200000000 cycles: 172349787
ITLB TOTAL     ACCESS:   31967974  HIT:   30804819  MISS:    1163155  HIT %:    96.3615  MISS %:     3.6385   MPKI: 5.81578
ITLB LOAD      ACCESS:          0  HIT:          0  MISS:          0  HIT %:       -nan  MISS %:       -nan   MPKI: 0
ITLB RFO       ACCESS:          0  HIT:          0  MISS:          0  HIT %:       -nan  MISS %:       -nan   MPKI: 0
ITLB PREFETCH  ACCESS:          0  HIT:          0  MISS:          0  HIT %:       -nan  MISS %:       -nan   MPKI: 0
ITLB WRITEBACK ACCESS:          0  HIT:          0  MISS:          0  HIT %:       -nan  MISS %:       -nan   MPKI: 0
DTLB TOTAL     ACCESS:   26673998  HIT:   15343999  MISS:   11329999  HIT %:    57.5242  MISS %:    42.4758   MPKI: 56.65
DTLB LOAD      ACCESS:          0  HIT:          0  MISS:          0  HIT %:       -nan  MISS %:       -nan   MPKI: 0
DTLB RFO       ACCESS:          0  HIT:          0  MISS:          0  HIT %:       -nan  MISS %:       -nan   MPKI: 0
DTLB PREFETCH  ACCESS:          0  HIT:          0  MISS:          0  HIT %:       -nan  MISS %:       -nan   MPKI: 0
DTLB WRITEBACK ACCESS:          0  HIT:          0  MISS:          0  HIT %:       -nan  MISS %:       -nan   MPKI: 0
STLB TOTAL     ACCESS:   12715946  HIT:   10229691  MISS:    2486255  HIT %:    80.4477  MISS %:    19.5523   MPKI: 12.4313
STLB LOAD      ACCESS:          0  HIT:          0  MISS:          0  HIT %:       -nan  MISS %:       -nan   MPKI: 0
STLB RFO       ACCESS:          0  HIT:          0  MISS:          0  HIT %:       -nan  MISS %:       -nan   MPKI: 0
STLB PREFETCH  ACCESS:          0  HIT:          0  MISS:          0  HIT %:       -nan  MISS %:       -nan   MPKI: 0
STLB WRITEBACK ACCESS:          0  HIT:          0  MISS:          0  HIT %:       -nan  MISS %:       -nan   MPKI: 0
L1D TOTAL     ACCESS:   36169405  HIT:   35813544  MISS:     355861  HIT %:    99.0161  MISS %:   0.983873   MPKI: 1.7793
L1D LOAD      ACCESS:   26011868  HIT:   25744725  MISS:     267143  HIT %:     98.973  MISS %:      1.027   MPKI: 1.33571
L1D RFO       ACCESS:    9503364  HIT:    9448335  MISS:      55029  HIT %:     99.421  MISS %:   0.579048   MPKI: 0.275145
L1D PREFETCH  ACCESS:     654173  HIT:     620484  MISS:      33689  HIT %:    94.8501  MISS %:    5.14986   MPKI: 0.168445
L1D WRITEBACK ACCESS:          0  HIT:          0  MISS:          0  HIT %:       -nan  MISS %:       -nan   MPKI: 0
L1I TOTAL     ACCESS:   39069827  HIT:   38254367  MISS:     815460  HIT %:    97.9128  MISS %:    2.08719   MPKI: 4.0773
L1I LOAD      ACCESS:   39069827  HIT:   38254367  MISS:     815460  HIT %:    97.9128  MISS %:    2.08719   MPKI: 4.0773
L1I RFO       ACCESS:          0  HIT:          0  MISS:          0  HIT %:       -nan  MISS %:       -nan   MPKI: 0
L1I PREFETCH  ACCESS:          0  HIT:          0  MISS:          0  HIT %:       -nan  MISS %:       -nan   MPKI: 0
L1I WRITEBACK ACCESS:          0  HIT:          0  MISS:          0  HIT %:       -nan  MISS %:       -nan   MPKI: 0
L2C TOTAL     ACCESS:    4214601  HIT:    3901164  MISS:     313437  HIT %:    92.5631  MISS %:    7.43693   MPKI: 1.56719
L2C LOAD      ACCESS:    1080204  HIT:     887882  MISS:     192322  HIT %:    82.1958  MISS %:    17.8042   MPKI: 0.96161
L2C RFO       ACCESS:      55009  HIT:      23861  MISS:      31148  HIT %:    43.3765  MISS %:    56.6235   MPKI: 0.15574
L2C PREFETCH  ACCESS:     267346  HIT:     199100  MISS:      68246  HIT %:    74.4728  MISS %:    25.5272   MPKI: 0.34123
L2C WRITEBACK ACCESS:     191964  HIT:     179596  MISS:      12368  HIT %:    93.5571  MISS %:    6.44287   MPKI: 0.06184
PSCL5 TOTAL     ACCESS:    2497265  HIT:    2497265  MISS:          0  HIT %:        100  MISS %:          0   MPKI: 0
PSCL5 LOAD      ACCESS:          0  HIT:          0  MISS:          0  HIT %:       -nan  MISS %:       -nan   MPKI: 0
PSCL5 RFO       ACCESS:          0  HIT:          0  MISS:          0  HIT %:       -nan  MISS %:       -nan   MPKI: 0
PSCL5 PREFETCH  ACCESS:          0  HIT:          0  MISS:          0  HIT %:       -nan  MISS %:       -nan   MPKI: 0
PSCL5 WRITEBACK ACCESS:          0  HIT:          0  MISS:          0  HIT %:       -nan  MISS %:       -nan   MPKI: 0
PSCL4 TOTAL     ACCESS:    2491420  HIT:    2491259  MISS:        161  HIT %:    99.9935  MISS %: 0.00646218   MPKI: 0.000805
PSCL4 LOAD      ACCESS:          0  HIT:          0  MISS:          0  HIT %:       -nan  MISS %:       -nan   MPKI: 0
PSCL4 RFO       ACCESS:          0  HIT:          0  MISS:          0  HIT %:       -nan  MISS %:       -nan   MPKI: 0
PSCL4 PREFETCH  ACCESS:          0  HIT:          0  MISS:          0  HIT %:       -nan  MISS %:       -nan   MPKI: 0
PSCL4 WRITEBACK ACCESS:          0  HIT:          0  MISS:          0  HIT %:       -nan  MISS %:       -nan   MPKI: 0
PSCL3 TOTAL     ACCESS:    2475978  HIT:    2471445  MISS:       4533  HIT %:    99.8169  MISS %:   0.183079   MPKI: 0.022665
PSCL3 LOAD      ACCESS:          0  HIT:          0  MISS:          0  HIT %:       -nan  MISS %:       -nan   MPKI: 0
PSCL3 RFO       ACCESS:          0  HIT:          0  MISS:          0  HIT %:       -nan  MISS %:       -nan   MPKI: 0
PSCL3 PREFETCH  ACCESS:          0  HIT:          0  MISS:          0  HIT %:       -nan  MISS %:       -nan   MPKI: 0
PSCL3 WRITEBACK ACCESS:          0  HIT:          0  MISS:          0  HIT %:       -nan  MISS %:       -nan   MPKI: 0
PSCL2 TOTAL     ACCESS:    2496957  HIT:    2378931  MISS:     118026  HIT %:    95.2732  MISS %:    4.72679   MPKI: 0.59013
PSCL2 LOAD      ACCESS:          0  HIT:          0  MISS:          0  HIT %:       -nan  MISS %:       -nan   MPKI: 0
PSCL2 RFO       ACCESS:          0  HIT:          0  MISS:          0  HIT %:       -nan  MISS %:       -nan   MPKI: 0
PSCL2 PREFETCH  ACCESS:          0  HIT:          0  MISS:          0  HIT %:       -nan  MISS %:       -nan   MPKI: 0
PSCL2 WRITEBACK ACCESS:          0  HIT:          0  MISS:          0  HIT %:       -nan  MISS %:       -nan   MPKI: 0
LLC TOTAL     ACCESS:     448668  HIT:     242814  MISS:     205854  HIT %:    54.1189  MISS %:    45.8811   MPKI: 1.02927
LLC LOAD      ACCESS:     190894  HIT:      77832  MISS:     113062  HIT %:    40.7724  MISS %:    59.2276   MPKI: 0.56531
LLC RFO       ACCESS:      31146  HIT:       2150  MISS:      28996  HIT %:    6.90297  MISS %:     93.097   MPKI: 0.14498
LLC PREFETCH  ACCESS:      69675  HIT:      13555  MISS:      56120  HIT %:    19.4546  MISS %:    80.5454   MPKI: 0.2806
LLC WRITEBACK ACCESS:     147600  HIT:     142644  MISS:       4956  HIT %:    96.6423  MISS %:    3.35772   MPKI: 0.02478

RAW hits: 3023346
Loads Generated: 44061034
Loads sent to L1D: 41037679
Stores Generated: 10781225
Stores sent to L1D: 10781226

CPU 3 cumulative IPC: 1.30614 instructions: 225113530 cycles: 172349788
ITLB TOTAL     ACCESS:   37294212  HIT:   36496568  MISS:     797644  HIT %:    97.8612  MISS %:    2.13879   MPKI: 3.5433
ITLB LOAD      ACCESS:          0  HIT:          0  MISS:          0  HIT %:       -nan  MISS %:       -nan   MPKI: 0
ITLB RFO       ACCESS:          0  HIT:          0  MISS:          0  HIT %:       -nan  MISS %:       -nan   MPKI: 0
ITLB PREFETCH  ACCESS:          0  HIT:          0  MISS:          0  HIT %:       -nan  MISS %:       -nan   MPKI: 0
ITLB WRITEBACK ACCESS:          0  HIT:          0  MISS:          0  HIT %:       -nan  MISS %:       -nan   MPKI: 0
DTLB TOTAL     ACCESS:   28721643  HIT:   14317816  MISS:   14403827  HIT %:    49.8503  MISS %:    50.1497   MPKI: 63.9847
DTLB LOAD      ACCESS:          0  HIT:          0  MISS:          0  HIT %:       -nan  MISS %:       -nan   MPKI: 0
DTLB RFO       ACCESS:          0  HIT:          0  MISS:          0  HIT %:       -nan  MISS %:       -nan   MPKI: 0
DTLB PREFETCH  ACCESS:          0  HIT:          0  MISS:          0  HIT %:       -nan  MISS %:       -nan   MPKI: 0
DTLB WRITEBACK ACCESS:          0  HIT:          0  MISS:          0  HIT %:       -nan  MISS %:       -nan   MPKI: 0
STLB TOTAL     ACCESS:   15317275  HIT:   13699156  MISS:    1618119  HIT %:     89.436  MISS %:     10.564   MPKI: 7.18801
STLB LOAD      ACCESS:          0  HIT:          0  MISS:          0  HIT %:       -nan  MISS %:       -nan   MPKI: 0
STLB RFO       ACCESS:          0  HIT:          0  MISS:          0  HIT %:       -nan  MISS %:       -nan   MPKI: 0
STLB PREFETCH  ACCESS:          0  HIT:          0  MISS:          0  HIT %:       -nan  MISS %:       -nan   MPKI: 0
STLB WRITEBACK ACCESS:          0  HIT:          0  MISS:          0  HIT %:       -nan  MISS %:       -nan   MPKI: 0
L1D TOTAL     ACCESS:   38051014  HIT:   37806151  MISS:     244863  HIT %:    99.3565  MISS %:   0.643512   MPKI: 1.08773
L1D LOAD      ACCESS:   30760604  HIT:   30580295  MISS:     180309  HIT %:    99.4138  MISS %:   0.586169   MPKI: 0.800969
L1D RFO       ACCESS:    7019247  HIT:    6977029  MISS:      42218  HIT %:    99.3985  MISS %:   0.601461   MPKI: 0.187541
L1D PREFETCH  ACCESS:     271163  HIT:     248827  MISS:      22336  HIT %:    91.7629  MISS %:    8.23711   MPKI: 0.099221
L1D WRITEBACK ACCESS:          0  HIT:          0  MISS:          0  HIT %:       -nan  MISS %:       -nan   MPKI: 0
L1I TOTAL     ACCESS:   44524843  HIT:   43861167  MISS:     663676  HIT %:    98.5094  MISS %:    1.49057   MPKI: 2.94818
L1I LOAD      ACCESS:   44524843  HIT:   43861167  MISS:     663676  HIT %:    98.5094  MISS %:    1.49057   MPKI: 2.94818
L1I RFO       ACCESS:          0  HIT:          0  MISS:          0  HIT %:       -nan  MISS %:       -nan   MPKI: 0
L1I PREFETCH  ACCESS:          0  HIT:          0  MISS:          0  HIT %:       -nan  MISS %:       -nan   MPKI: 0
L1I WRITEBACK ACCESS:          0  HIT:          0  MISS:          0  HIT %:       -nan  MISS %:       -nan   MPKI: 0
L2C TOTAL     ACCESS:    2894892  HIT:    2655277  MISS:     239615  HIT %:    91.7228  MISS %:    8.27717   MPKI: 1.06442
L2C LOAD      ACCESS:     842293  HIT:     690636  MISS:     151657  HIT %:    81.9947  MISS %:    18.0053   MPKI: 0.673691
L2C RFO       ACCESS:      42204  HIT:      20352  MISS:      21852  HIT %:    48.2229  MISS %:    51.7771   MPKI: 0.097071
L2C PREFETCH  ACCESS:     159077  HIT:     114712  MISS:      44365  HIT %:     72.111  MISS %:     27.889   MPKI: 0.197078
L2C WRITEBACK ACCESS:     127495  HIT:     114839  MISS:      12656  HIT %:    90.0733  MISS %:    9.92666   MPKI: 0.0562205
PSCL5 TOTAL     ACCESS:    1625266  HIT:    1625266  MISS:          0  HIT %:        100  MISS %:          0   MPKI: 0
PSCL5 LOAD      ACCESS:          0  HIT:          0  MISS:          0  HIT %:       -nan  MISS %:       -nan   MPKI: 0
PSCL5 RFO       ACCESS:          0  HIT:          0  MISS:          0  HIT %:       -nan  MISS %:       -nan   MPKI: 0
PSCL5 PREFETCH  ACCESS:          0  HIT:          0  MISS:          0  HIT %:       -nan  MISS %:       -nan   MPKI: 0
PSCL5 WRITEBACK ACCESS:          0  HIT:          0  MISS:          0  HIT %:       -nan  MISS %:       -nan   MPKI: 0
PSCL4 TOTAL     ACCESS:    1619877  HIT:    1619645  MISS:        232  HIT %:    99.9857  MISS %:  0.0143221   MPKI: 0.00103059
PSCL4 LOAD      ACCESS:          0  HIT:          0  MISS:          0  HIT %:       -nan  MISS %:       -nan   MPKI: 0
PSCL4 RFO       ACCESS:          0  HIT:          0  MISS:          0  HIT %:       -nan  MISS %:       -nan   MPKI: 0
PSCL4 PREFETCH  ACCESS:          0  HIT:          0  MISS:          0  HIT %:       -nan  MISS %:       -nan   MPKI: 0
PSCL4 WRITEBACK ACCESS:          0  HIT:          0  MISS:          0  HIT %:       -nan  MISS %:       -nan   MPKI: 0
PSCL3 TOTAL     ACCESS:    1603712  HIT:    1599801  MISS:       3911  HIT %:    99.7561  MISS %:   0.243872   MPKI: 0.0173735
PSCL3 LOAD      ACCESS:          0  HIT:          0  MISS:          0  HIT %:       -nan  MISS %:       -nan   MPKI: 0
PSCL3 RFO       ACCESS:          0  HIT:          0  MISS:          0  HIT %:       -nan  MISS %:       -nan   MPKI: 0
PSCL3 PREFETCH  ACCESS:          0  HIT:          0  MISS:          0  HIT %:       -nan  MISS %:       -nan   MPKI: 0
PSCL3 WRITEBACK ACCESS:          0  HIT:          0  MISS:          0  HIT %:       -nan  MISS %:       -nan   MPKI: 0
PSCL2 TOTAL     ACCESS:    1625243  HIT:    1530714  MISS:      94529  HIT %:    94.1837  MISS %:     5.8163   MPKI: 0.419917
PSCL2 LOAD      ACCESS:          0  HIT:          0  MISS:          0  HIT %:       -nan  MISS %:       -nan   MPKI: 0
PSCL2 RFO       ACCESS:          0  HIT:          0  MISS:          0  HIT %:       -nan  MISS %:       -nan   MPKI: 0
PSCL2 PREFETCH  ACCESS:          0  HIT:          0  MISS:          0  HIT %:       -nan  MISS %:       -nan   MPKI: 0
PSCL2 WRITEBACK ACCESS:          0  HIT:          0  MISS:          0  HIT %:       -nan  MISS %:       -nan   MPKI: 0
LLC TOTAL     ACCESS:     317159  HIT:     172257  MISS:     144902  HIT %:    54.3125  MISS %:    45.6875   MPKI: 0.643684
LLC LOAD      ACCESS:     150672  HIT:      71660  MISS:      79012  HIT %:    47.5603  MISS %:    52.4397   MPKI: 0.350987
LLC RFO       ACCESS:      21848  HIT:       2787  MISS:      19061  HIT %:    12.7563  MISS %:    87.2437   MPKI: 0.0846728
LLC PREFETCH  ACCESS:      45353  HIT:       7691  MISS:      37662  HIT %:    16.9581  MISS %:    83.0419   MPKI: 0.167302
LLC WRITEBACK ACCESS:      90201  HIT:      83742  MISS:       6459  HIT %:    92.8393  MISS %:    7.16067   MPKI: 0.0286922

RAW hits: 3216935
Loads Generated: 51427825
Loads sent to L1D: 48210890
Stores Generated: 8437717
Stores sent to L1D: 8437718

Region of Interest Statistics

CPU 0 cumulative IPC: 1.31393 instructions: 200000000 cycles: 152214903
ITLB TOTAL     ACCESS:   32949786  HIT:   32244662  MISS:     705124  HIT %:      97.86  MISS %:       2.14   MPKI: 3.52562
ITLB LOAD TRANSLATION ACCESS:   32949786  HIT:   32244662  MISS:     705124  HIT %:      97.86  MISS %:       2.14   MPKI: 3.52562
ITLB PREFETCH  REQUESTED:          0  ISSUED:          0  USEFUL:          0  USELESS:          0
ITLB USEFUL LOAD PREFETCHES:          0 PREFETCH ISSUED TO LOWER LEVEL:          0  ACCURACY: -nan
ITLB TIMELY PREFETCHES:          0 LATE PREFETCHES: 0 DROPPED PREFETCHES: 0
ITLB PREFETCHES SAME FILL-ORIGIN LEVEL: 0 DIFFERENT FILL-ORIGIN LEVEL: 0
ITLB AVERAGE MISS LATENCY: 32.4402 cycles
ITLB RQ	ACCESS:   44734804	FORWARD:          0	MERGED:    7076692	TO_CACHE:   37658112

DTLB TOTAL     ACCESS:   25057026  HIT:   12513450  MISS:   12543576  HIT %:    49.9399  MISS %:    50.0601   MPKI: 62.7179
DTLB LOAD TRANSLATION ACCESS:   25057026  HIT:   12513450  MISS:   12543576  HIT %:    49.9399  MISS %:    50.0601   MPKI: 62.7179
DTLB PREFETCH  REQUESTED:          0  ISSUED:          0  USEFUL:          0  USELESS:          0
DTLB USEFUL LOAD PREFETCHES:          0 PREFETCH ISSUED TO LOWER LEVEL:          0  ACCURACY: -nan
DTLB TIMELY PREFETCHES:          0 LATE PREFETCHES: 0 DROPPED PREFETCHES: 0
DTLB PREFETCHES SAME FILL-ORIGIN LEVEL: 0 DIFFERENT FILL-ORIGIN LEVEL: 0
DTLB AVERAGE MISS LATENCY: 12.6474 cycles
DTLB RQ	ACCESS:   37701272	FORWARD:          0	MERGED:    8122636	TO_CACHE:   29578636

STLB TOTAL     ACCESS:   13412705  HIT:   11859705  MISS:    1553000  HIT %:    88.4214  MISS %:    11.5786   MPKI: 7.765
STLB LOAD TRANSLATION ACCESS:   13248700  HIT:   11699310  MISS:    1549390  HIT %:    88.3053  MISS %:    11.6947   MPKI: 7.74695
STLB TRANSLATION FROM L1D PREFETCHER ACCESS:     164005  HIT:     160395  MISS:       3610  HIT %:    97.7988  MISS %:    2.20115   MPKI: 0.01805
STLB PREFETCH  REQUESTED:          0  ISSUED:          0  USEFUL:       3281  USELESS:        552
STLB USEFUL LOAD PREFETCHES:       3281 PREFETCH ISSUED TO LOWER LEVEL:          0  ACCURACY: inf
STLB TIMELY PREFETCHES:       3281 LATE PREFETCHES: 0 DROPPED PREFETCHES: 9615
STLB PREFETCHES SAME FILL-ORIGIN LEVEL: 0 DIFFERENT FILL-ORIGIN LEVEL: 0
STLB AVERAGE MISS LATENCY: 28.3313 cycles
STLB RQ	ACCESS:   15723926	FORWARD:          0	MERGED:     448058	TO_CACHE:   15275868

STLB Hit, L1D data hit: 0
STLB Hit, L2C data hit: 0
STLB Hit, LLC data hit: 0
STLB Hit, LLC data miss: 0
STLB STLB hints to L2: 0
L1D TOTAL     ACCESS:   33392924  HIT:   33159561  MISS:     233363  HIT %:    99.3012  MISS %:    0.69884   MPKI: 1.16681
L1D LOAD      ACCESS:   26399852  HIT:   26233578  MISS:     166274  HIT %:    99.3702  MISS %:   0.629829   MPKI: 0.83137
L1D RFO       ACCESS:    6646741  HIT:    6605537  MISS:      41204  HIT %:    99.3801  MISS %:   0.619913   MPKI: 0.20602
L1D PREFETCH  ACCESS:     346331  HIT:     320446  MISS:      25885  HIT %:    92.5259  MISS %:    7.47406   MPKI: 0.129425
L1D PREFETCH  REQUESTED:    1442907  ISSUED:    1440026  USEFUL:      23696  USELESS:       2878
L1D USEFUL LOAD PREFETCHES:      23696 PREFETCH ISSUED TO LOWER LEVEL:     249999  ACCURACY: 9.47844
L1D TIMELY PREFETCHES:      23696 LATE PREFETCHES: 3098 DROPPED PREFETCHES: 19142
L1D PREFETCHES SAME FILL-ORIGIN LEVEL: 29658 DIFFERENT FILL-ORIGIN LEVEL: 220341
L1D AVERAGE MISS LATENCY: 119.801 cycles
L1D RQ	ACCESS:   47520030	FORWARD:          0	MERGED:   17248268	TO_CACHE:   30138787
L1D WQ	ACCESS:    8851117	FORWARD:     133001	MERGED:    1288632	TO_CACHE:    7562485
L1D PQ	ACCESS:     810214	FORWARD:          0	MERGED:     180376	TO_CACHE:     629812

L1D UNIQUE REGIONS ACCESSED: 0
L1D REGIONS CONFLICTS: 0
L1D Cross Page Prefetch Requests: 87385
L1D Same Page Prefetch Requests: 724113
L1D ROI Sum of L1D PQ occupancy: 8767601
L1D PREFETCHES PUSHED FROM L2C: 0
L1I TOTAL     ACCESS:   39350206  HIT:   38974929  MISS:     375277  HIT %:    99.0463  MISS %:   0.953685   MPKI: 1.87638
L1I LOAD      ACCESS:   39350206  HIT:   38974929  MISS:     375277  HIT %:    99.0463  MISS %:   0.953685   MPKI: 1.87638
L1I PREFETCH  REQUESTED:          0  ISSUED:          0  USEFUL:          0  USELESS:          0
L1I USEFUL LOAD PREFETCHES:          0 PREFETCH ISSUED TO LOWER LEVEL:          0  ACCURACY: -nan
L1I TIMELY PREFETCHES:          0 LATE PREFETCHES: 0 DROPPED PREFETCHES: 0
L1I PREFETCHES SAME FILL-ORIGIN LEVEL: 0 DIFFERENT FILL-ORIGIN LEVEL: 0
L1I AVERAGE MISS LATENCY: 27.6507 cycles
L1I RQ	ACCESS:   86102373	FORWARD:          0	MERGED:   41367569	TO_CACHE:   44734804

BTB BRANCH_DIRECT_JUMP	ACCESS:          0  HIT:          0  MISS:          0
BTB BRANCH_INDIRECT	ACCESS:          0  HIT:          0  MISS:          0
BTB BRANCH_CONDITIONAL	ACCESS:          0  HIT:          0  MISS:          0
BTB BRANCH_DIRECT_CALL	ACCESS:          0  HIT:          0  MISS:          0
BTB BRANCH_INDIRECT_CALL	ACCESS:          0  HIT:          0  MISS:          0
BTB BRANCH_RETURN	ACCESS:          0  HIT:          0  MISS:          0
BTB BRANCH_OTHER ACCESS:          0  HIT:          0  MISS:          0

L2C TOTAL     ACCESS:    2558387  HIT:    2328661  MISS:     229726  HIT %:    91.0207  MISS %:    8.97933   MPKI: 1.14863
L2C LOAD      ACCESS:     538568  HIT:     406869  MISS:     131699  HIT %:    75.5464  MISS %:    24.4536   MPKI: 0.658495
L2C DATA LOAD MPKI: 0.465335
L2C INSTRUCTION LOAD MPKI: 0.19316
L2C RFO       ACCESS:      41190  HIT:      19572  MISS:      21618  HIT %:    47.5164  MISS %:    52.4836   MPKI: 0.10809
L2C PREFETCH  ACCESS:     211333  HIT:     156006  MISS:      55327  HIT %:      73.82  MISS %:      26.18   MPKI: 0.276635
L2C DATA PREFETCH MPKI: 0.276635
L2C INSTRUCTION PREFETCH MPKI: 0
L2C WRITEBACK ACCESS:     148200  HIT:     133319  MISS:      14881  HIT %:    89.9588  MISS %:    10.0412   MPKI: 0.074405
L2C LOAD TRANSLATION ACCESS:    1605878  HIT:    1599912  MISS:       5966  HIT %:    99.6285  MISS %:    0.37151   MPKI: 0.02983
L2C TRANSLATION FROM L1D PREFETCHER ACCESS:      13218  HIT:      12983  MISS:        235  HIT %:    98.2221  MISS %:    1.77788   MPKI: 0.001175
L2C PREFETCH  REQUESTED:          0  ISSUED:          0  USEFUL:      31138  USELESS:      25647
L2C USEFUL LOAD PREFETCHES:      31138 PREFETCH ISSUED TO LOWER LEVEL:      60696  ACCURACY: 51.3016
L2C TIMELY PREFETCHES:      31138 LATE PREFETCHES: 3786 DROPPED PREFETCHES: 0
L2C PREFETCHES SAME FILL-ORIGIN LEVEL: 49431 DIFFERENT FILL-ORIGIN LEVEL: 0
L2C AVERAGE MISS LATENCY: 171.637 cycles
L2C RQ	ACCESS:    2472910	FORWARD:          0	MERGED:          0	TO_CACHE:    2472890
L2C WQ	ACCESS:     157253	FORWARD:         20	MERGED:          0	TO_CACHE:     157253
L2C PQ	ACCESS:     249980	FORWARD:          0	MERGED:       1637	TO_CACHE:     248343

L2C Instructions Evicting Data 30503
L2C Translations Evicting Data 4958
L2C Data Evicting Data 143020
L2C Instructions Evicting Instructions 10499
L2C Translations Evicting Instructions 1533
L2C Data Evicting Instructions 28934
L2C Instructions Evicting Translations 1525
L2C Translations Evicting Translations 238
L2C Data Evicting Translations 4672
L2C Dense regions hint from L2: 0
PSCL5 TOTAL     ACCESS:    1562561  HIT:    1562561  MISS:          0  HIT %:        100  MISS %:          0   MPKI: 0
PSCL5 LOAD TRANSLATION ACCESS:    1549390  HIT:    1549390  MISS:          0  HIT %:        100  MISS %:          0   MPKI: 0
PSCL5 TRANSLATION FROM L1D PREFETCHER ACCESS:      13171  HIT:      13171  MISS:          0  HIT %:        100  MISS %:          0   MPKI: 0
PSCL5 PREFETCH  REQUESTED:          0  ISSUED:          0  USEFUL:          0  USELESS:          0
PSCL5 USEFUL LOAD PREFETCHES:          0 PREFETCH ISSUED TO LOWER LEVEL:          0  ACCURACY: -nan
PSCL5 TIMELY PREFETCHES:          0 LATE PREFETCHES: 0 DROPPED PREFETCHES: 0
PSCL5 PREFETCHES SAME FILL-ORIGIN LEVEL: 0 DIFFERENT FILL-ORIGIN LEVEL: 0

PSCL4 TOTAL     ACCESS:    1559953  HIT:    1559872  MISS:         81  HIT %:    99.9948  MISS %: 0.00519246   MPKI: 0.000405
PSCL4 LOAD TRANSLATION ACCESS:    1546782  HIT:    1546701  MISS:         81  HIT %:    99.9948  MISS %: 0.00523668   MPKI: 0.000405
PSCL4 TRANSLATION FROM L1D PREFETCHER ACCESS:      13171  HIT:      13171  MISS:          0  HIT %:        100  MISS %:          0   MPKI: 0
PSCL4 PREFETCH  REQUESTED:          0  ISSUED:          0  USEFUL:          0  USELESS:          0
PSCL4 USEFUL LOAD PREFETCHES:          0 PREFETCH ISSUED TO LOWER LEVEL:          0  ACCURACY: -nan
PSCL4 TIMELY PREFETCHES:          0 LATE PREFETCHES: 0 DROPPED PREFETCHES: 0
PSCL4 PREFETCHES SAME FILL-ORIGIN LEVEL: 0 DIFFERENT FILL-ORIGIN LEVEL: 0

PSCL3 TOTAL     ACCESS:    1557451  HIT:    1555512  MISS:       1939  HIT %:    99.8755  MISS %:   0.124498   MPKI: 0.009695
PSCL3 LOAD TRANSLATION ACCESS:    1544342  HIT:    1542403  MISS:       1939  HIT %:    99.8744  MISS %:   0.125555   MPKI: 0.009695
PSCL3 TRANSLATION FROM L1D PREFETCHER ACCESS:      13109  HIT:      13109  MISS:          0  HIT %:        100  MISS %:          0   MPKI: 0
PSCL3 PREFETCH  REQUESTED:          0  ISSUED:          0  USEFUL:          0  USELESS:          0
PSCL3 USEFUL LOAD PREFETCHES:          0 PREFETCH ISSUED TO LOWER LEVEL:          0  ACCURACY: -nan
PSCL3 TIMELY PREFETCHES:          0 LATE PREFETCHES: 0 DROPPED PREFETCHES: 0
PSCL3 PREFETCHES SAME FILL-ORIGIN LEVEL: 0 DIFFERENT FILL-ORIGIN LEVEL: 0

PSCL2 TOTAL     ACCESS:    1562445  HIT:    1507771  MISS:      54674  HIT %:    96.5007  MISS %:    3.49926   MPKI: 0.27337
PSCL2 LOAD TRANSLATION ACCESS:    1549428  HIT:    1494754  MISS:      54674  HIT %:    96.4713  MISS %:    3.52866   MPKI: 0.27337
PSCL2 TRANSLATION FROM L1D PREFETCHER ACCESS:      13017  HIT:      13017  MISS:          0  HIT %:        100  MISS %:          0   MPKI: 0
PSCL2 PREFETCH  REQUESTED:          0  ISSUED:          0  USEFUL:          0  USELESS:          0
PSCL2 USEFUL LOAD PREFETCHES:          0 PREFETCH ISSUED TO LOWER LEVEL:          0  ACCURACY: -nan
PSCL2 TIMELY PREFETCHES:          0 LATE PREFETCHES: 0 DROPPED PREFETCHES: 0
PSCL2 PREFETCHES SAME FILL-ORIGIN LEVEL: 0 DIFFERENT FILL-ORIGIN LEVEL: 0

LLC TOTAL     ACCESS:     330713  HIT:     164039  MISS:     166674  HIT %:    49.6016  MISS %:    50.3984   MPKI: 0.83337
LLC LOAD      ACCESS:     128010  HIT:      40586  MISS:      87424  HIT %:    31.7053  MISS %:    68.2947   MPKI: 0.43712
LLC RFO       ACCESS:      21617  HIT:       3357  MISS:      18260  HIT %:    15.5294  MISS %:    84.4706   MPKI: 0.0913
LLC PREFETCH  ACCESS:      59016  HIT:       6299  MISS:      52717  HIT %:    10.6734  MISS %:    89.3266   MPKI: 0.263585
LLC WRITEBACK ACCESS:     115869  HIT:     109991  MISS:       5878  HIT %:     94.927  MISS %:    5.07297   MPKI: 0.02939
LLC LOAD TRANSLATION ACCESS:       5966  HIT:       3773  MISS:       2193  HIT %:    63.2417  MISS %:    36.7583   MPKI: 0.010965
LLC TRANSLATION FROM L1D PREFETCHER ACCESS:        235  HIT:         33  MISS:        202  HIT %:    14.0426  MISS %:    85.9574   MPKI: 0.00101
LLC PREFETCH  REQUESTED:          0  ISSUED:          0  USEFUL:       9567  USELESS:     167367
LLC USEFUL LOAD PREFETCHES:       9567 PREFETCH ISSUED TO LOWER LEVEL:     195569  ACCURACY: 4.89188
LLC TIMELY PREFETCHES:       9567 LATE PREFETCHES: 0 DROPPED PREFETCHES: 0
LLC PREFETCHES SAME FILL-ORIGIN LEVEL: 0 DIFFERENT FILL-ORIGIN LEVEL: 0
LLC AVERAGE MISS LATENCY: 766.703 cycles
LLC RQ	ACCESS:     820911	FORWARD:          0	MERGED:          0	TO_CACHE:     820910
LLC WQ	ACCESS:     496846	FORWARD:          5	MERGED:          0	TO_CACHE:     496846
LLC PQ	ACCESS:     232137	FORWARD:          0	MERGED:          0	TO_CACHE:     232133

LLC Dense regions hint to LLC: 0

RAW hits: 2813167
Loads Generated: 44478566
Loads sent to L1D: 41665398
Stores Generated: 7969586
Stores sent to L1D: 7969586
Major fault: 0 Minor fault: 3395
Allocated PAGES: 14687

CPU 1 cumulative IPC: 1.30627 instructions: 200000000 cycles: 153107556
ITLB TOTAL     ACCESS:   32925995  HIT:   32143323  MISS:     782672  HIT %:    97.6229  MISS %:    2.37706   MPKI: 3.91336
ITLB LOAD TRANSLATION ACCESS:   32925995  HIT:   32143323  MISS:     782672  HIT %:    97.6229  MISS %:    2.37706   MPKI: 3.91336
ITLB PREFETCH  REQUESTED:          0  ISSUED:          0  USEFUL:          0  USELESS:          0
ITLB USEFUL LOAD PREFETCHES:          0 PREFETCH ISSUED TO LOWER LEVEL:          0  ACCURACY: -nan
ITLB TIMELY PREFETCHES:          0 LATE PREFETCHES: 0 DROPPED PREFETCHES: 0
ITLB PREFETCHES SAME FILL-ORIGIN LEVEL: 0 DIFFERENT FILL-ORIGIN LEVEL: 0
ITLB AVERAGE MISS LATENCY: 31.9626 cycles
ITLB RQ	ACCESS:   44428194	FORWARD:          0	MERGED:    6835147	TO_CACHE:   37593047

DTLB TOTAL     ACCESS:   25231216  HIT:   12354665  MISS:   12876551  HIT %:    48.9658  MISS %:    51.0342   MPKI: 64.3828
DTLB LOAD TRANSLATION ACCESS:   25231216  HIT:   12354665  MISS:   12876551  HIT %:    48.9658  MISS %:    51.0342   MPKI: 64.3828
DTLB PREFETCH  REQUESTED:          0  ISSUED:          0  USEFUL:          0  USELESS:          0
DTLB USEFUL LOAD PREFETCHES:          0 PREFETCH ISSUED TO LOWER LEVEL:          0  ACCURACY: -nan
DTLB TIMELY PREFETCHES:          0 LATE PREFETCHES: 0 DROPPED PREFETCHES: 0
DTLB PREFETCHES SAME FILL-ORIGIN LEVEL: 0 DIFFERENT FILL-ORIGIN LEVEL: 0
DTLB AVERAGE MISS LATENCY: 12.8522 cycles
DTLB RQ	ACCESS:   37839439	FORWARD:          0	MERGED:    7853556	TO_CACHE:   29985883

STLB TOTAL     ACCESS:   13765747  HIT:   12060108  MISS:    1705639  HIT %:    87.6095  MISS %:    12.3905   MPKI: 8.5282
STLB LOAD TRANSLATION ACCESS:   13659222  HIT:   11957114  MISS:    1702108  HIT %:    87.5388  MISS %:    12.4612   MPKI: 8.51054
STLB TRANSLATION FROM L1D PREFETCHER ACCESS:     106525  HIT:     102994  MISS:       3531  HIT %:    96.6853  MISS %:    3.31471   MPKI: 0.017655
STLB PREFETCH  REQUESTED:          0  ISSUED:          0  USEFUL:       3019  USELESS:        624
STLB USEFUL LOAD PREFETCHES:       3019 PREFETCH ISSUED TO LOWER LEVEL:          0  ACCURACY: inf
STLB TIMELY PREFETCHES:       3019 LATE PREFETCHES: 0 DROPPED PREFETCHES: 10080
STLB PREFETCHES SAME FILL-ORIGIN LEVEL: 0 DIFFERENT FILL-ORIGIN LEVEL: 0
STLB AVERAGE MISS LATENCY: 28.111 cycles
STLB RQ	ACCESS:   16062512	FORWARD:          0	MERGED:     296895	TO_CACHE:   15765617

STLB Hit, L1D data hit: 0
STLB Hit, L2C data hit: 0
STLB Hit, LLC data hit: 0
STLB Hit, LLC data miss: 0
STLB STLB hints to L2: 0
L1D TOTAL     ACCESS:   33578208  HIT:   33337385  MISS:     240823  HIT %:    99.2828  MISS %:     0.7172   MPKI: 1.20412
L1D LOAD      ACCESS:   27037185  HIT:   26855822  MISS:     181363  HIT %:    99.3292  MISS %:   0.670791   MPKI: 0.906815
L1D RFO       ACCESS:    6299559  HIT:    6264883  MISS:      34676  HIT %:    99.4495  MISS %:   0.550451   MPKI: 0.17338
L1D PREFETCH  ACCESS:     241464  HIT:     216680  MISS:      24784  HIT %:    89.7359  MISS %:    10.2641   MPKI: 0.12392
L1D PREFETCH  REQUESTED:     882885  ISSUED:     880427  USEFUL:      23025  USELESS:       2229
L1D USEFUL LOAD PREFETCHES:      23025 PREFETCH ISSUED TO LOWER LEVEL:     152765  ACCURACY: 15.0722
L1D TIMELY PREFETCHES:      23025 LATE PREFETCHES: 2616 DROPPED PREFETCHES: 18352
L1D PREFETCHES SAME FILL-ORIGIN LEVEL: 27895 DIFFERENT FILL-ORIGIN LEVEL: 124870
L1D AVERAGE MISS LATENCY: 128.809 cycles
L1D RQ	ACCESS:   48735993	FORWARD:          0	MERGED:   17670929	TO_CACHE:   30915278
L1D WQ	ACCESS:    8170888	FORWARD:     149794	MERGED:    1246727	TO_CACHE:    6924161
L1D PQ	ACCESS:     464018	FORWARD:          0	MERGED:      47601	TO_CACHE:     416409

L1D UNIQUE REGIONS ACCESSED: 0
L1D REGIONS CONFLICTS: 0
L1D Cross Page Prefetch Requests: 61427
L1D Same Page Prefetch Requests: 402591
L1D ROI Sum of L1D PQ occupancy: 6157506
L1D PREFETCHES PUSHED FROM L2C: 0
L1I TOTAL     ACCESS:   39262496  HIT:   38899901  MISS:     362595  HIT %:    99.0765  MISS %:   0.923515   MPKI: 1.81298
L1I LOAD      ACCESS:   39262496  HIT:   38899901  MISS:     362595  HIT %:    99.0765  MISS %:   0.923515   MPKI: 1.81298
L1I PREFETCH  REQUESTED:          0  ISSUED:          0  USEFUL:          0  USELESS:          0
L1I USEFUL LOAD PREFETCHES:          0 PREFETCH ISSUED TO LOWER LEVEL:          0  ACCURACY: -nan
L1I TIMELY PREFETCHES:          0 LATE PREFETCHES: 0 DROPPED PREFETCHES: 0
L1I PREFETCHES SAME FILL-ORIGIN LEVEL: 0 DIFFERENT FILL-ORIGIN LEVEL: 0
L1I AVERAGE MISS LATENCY: 31.4966 cycles
L1I RQ	ACCESS:   88300011	FORWARD:          0	MERGED:   43871817	TO_CACHE:   44428194

BTB BRANCH_DIRECT_JUMP	ACCESS:          0  HIT:          0  MISS:          0
BTB BRANCH_INDIRECT	ACCESS:          0  HIT:          0  MISS:          0
BTB BRANCH_CONDITIONAL	ACCESS:          0  HIT:          0  MISS:          0
BTB BRANCH_DIRECT_CALL	ACCESS:          0  HIT:          0  MISS:          0
BTB BRANCH_INDIRECT_CALL	ACCESS:          0  HIT:          0  MISS:          0
BTB BRANCH_RETURN	ACCESS:          0  HIT:          0  MISS:          0
BTB BRANCH_OTHER ACCESS:          0  HIT:          0  MISS:          0

L2C TOTAL     ACCESS:    2622991  HIT:    2347097  MISS:     275894  HIT %:    89.4817  MISS %:    10.5183   MPKI: 1.37947
L2C LOAD      ACCESS:     541421  HIT:     367900  MISS:     173521  HIT %:    67.9508  MISS %:    32.0492   MPKI: 0.867605
L2C DATA LOAD MPKI: 0.573075
L2C INSTRUCTION LOAD MPKI: 0.29453
L2C RFO       ACCESS:      34671  HIT:      13069  MISS:      21602  HIT %:    37.6943  MISS %:    62.3057   MPKI: 0.10801
L2C PREFETCH  ACCESS:     129508  HIT:      75265  MISS:      54243  HIT %:    58.1161  MISS %:    41.8839   MPKI: 0.271215
L2C DATA PREFETCH MPKI: 0.271215
L2C INSTRUCTION PREFETCH MPKI: 0
L2C WRITEBACK ACCESS:     149846  HIT:     132406  MISS:      17440  HIT %:    88.3614  MISS %:    11.6386   MPKI: 0.0872
L2C LOAD TRANSLATION ACCESS:    1753951  HIT:    1745139  MISS:       8812  HIT %:    99.4976  MISS %:   0.502409   MPKI: 0.04406
L2C TRANSLATION FROM L1D PREFETCHER ACCESS:      13594  HIT:      13318  MISS:        276  HIT %:    97.9697  MISS %:    2.03031   MPKI: 0.00138
L2C PREFETCH  REQUESTED:          0  ISSUED:          0  USEFUL:      26083  USELESS:      29098
L2C USEFUL LOAD PREFETCHES:      26083 PREFETCH ISSUED TO LOWER LEVEL:      56412  ACCURACY: 46.2366
L2C TIMELY PREFETCHES:      26083 LATE PREFETCHES: 1026 DROPPED PREFETCHES: 0
L2C PREFETCHES SAME FILL-ORIGIN LEVEL: 42950 DIFFERENT FILL-ORIGIN LEVEL: 0
L2C AVERAGE MISS LATENCY: 153.614 cycles
L2C RQ	ACCESS:    2589328	FORWARD:          0	MERGED:          0	TO_CACHE:    2589325
L2C WQ	ACCESS:     160855	FORWARD:          3	MERGED:          0	TO_CACHE:     160855
L2C PQ	ACCESS:     152028	FORWARD:          0	MERGED:        571	TO_CACHE:     151457

L2C Instructions Evicting Data 43335
L2C Translations Evicting Data 7074
L2C Data Evicting Data 156025
L2C Instructions Evicting Instructions 26101
L2C Translations Evicting Instructions 3182
L2C Data Evicting Instructions 39318
L2C Instructions Evicting Translations 3128
L2C Translations Evicting Translations 388
L2C Data Evicting Translations 6482
L2C Dense regions hint from L2: 0
PSCL5 TOTAL     ACCESS:    1715640  HIT:    1715640  MISS:          0  HIT %:        100  MISS %:          0   MPKI: 0
PSCL5 LOAD TRANSLATION ACCESS:    1702108  HIT:    1702108  MISS:          0  HIT %:        100  MISS %:          0   MPKI: 0
PSCL5 TRANSLATION FROM L1D PREFETCHER ACCESS:      13532  HIT:      13532  MISS:          0  HIT %:        100  MISS %:          0   MPKI: 0
PSCL5 PREFETCH  REQUESTED:          0  ISSUED:          0  USEFUL:          0  USELESS:          0
PSCL5 USEFUL LOAD PREFETCHES:          0 PREFETCH ISSUED TO LOWER LEVEL:          0  ACCURACY: -nan
PSCL5 TIMELY PREFETCHES:          0 LATE PREFETCHES: 0 DROPPED PREFETCHES: 0
PSCL5 PREFETCHES SAME FILL-ORIGIN LEVEL: 0 DIFFERENT FILL-ORIGIN LEVEL: 0

PSCL4 TOTAL     ACCESS:    1706445  HIT:    1706264  MISS:        181  HIT %:    99.9894  MISS %:  0.0106068   MPKI: 0.000905
PSCL4 LOAD TRANSLATION ACCESS:    1692931  HIT:    1692750  MISS:        181  HIT %:    99.9893  MISS %:  0.0106915   MPKI: 0.000905
PSCL4 TRANSLATION FROM L1D PREFETCHER ACCESS:      13514  HIT:      13514  MISS:          0  HIT %:        100  MISS %:          0   MPKI: 0
PSCL4 PREFETCH  REQUESTED:          0  ISSUED:          0  USEFUL:          0  USELESS:          0
PSCL4 USEFUL LOAD PREFETCHES:          0 PREFETCH ISSUED TO LOWER LEVEL:          0  ACCURACY: -nan
PSCL4 TIMELY PREFETCHES:          0 LATE PREFETCHES: 0 DROPPED PREFETCHES: 0
PSCL4 PREFETCHES SAME FILL-ORIGIN LEVEL: 0 DIFFERENT FILL-ORIGIN LEVEL: 0

PSCL3 TOTAL     ACCESS:    1704403  HIT:    1702575  MISS:       1828  HIT %:    99.8927  MISS %:   0.107252   MPKI: 0.00914
PSCL3 LOAD TRANSLATION ACCESS:    1690916  HIT:    1689088  MISS:       1828  HIT %:    99.8919  MISS %:   0.108107   MPKI: 0.00914
PSCL3 TRANSLATION FROM L1D PREFETCHER ACCESS:      13487  HIT:      13487  MISS:          0  HIT %:        100  MISS %:          0   MPKI: 0
PSCL3 PREFETCH  REQUESTED:          0  ISSUED:          0  USEFUL:          0  USELESS:          0
PSCL3 USEFUL LOAD PREFETCHES:          0 PREFETCH ISSUED TO LOWER LEVEL:          0  ACCURACY: -nan
PSCL3 TIMELY PREFETCHES:          0 LATE PREFETCHES: 0 DROPPED PREFETCHES: 0
PSCL3 PREFETCHES SAME FILL-ORIGIN LEVEL: 0 DIFFERENT FILL-ORIGIN LEVEL: 0

PSCL2 TOTAL     ACCESS:    1715492  HIT:    1665422  MISS:      50070  HIT %:    97.0813  MISS %:     2.9187   MPKI: 0.25035
PSCL2 LOAD TRANSLATION ACCESS:    1702122  HIT:    1652052  MISS:      50070  HIT %:    97.0584  MISS %:    2.94162   MPKI: 0.25035
PSCL2 TRANSLATION FROM L1D PREFETCHER ACCESS:      13370  HIT:      13370  MISS:          0  HIT %:        100  MISS %:          0   MPKI: 0
PSCL2 PREFETCH  REQUESTED:          0  ISSUED:          0  USEFUL:          0  USELESS:          0
PSCL2 USEFUL LOAD PREFETCHES:          0 PREFETCH ISSUED TO LOWER LEVEL:          0  ACCURACY: -nan
PSCL2 TIMELY PREFETCHES:          0 LATE PREFETCHES: 0 DROPPED PREFETCHES: 0
PSCL2 PREFETCHES SAME FILL-ORIGIN LEVEL: 0 DIFFERENT FILL-ORIGIN LEVEL: 0

LLC TOTAL     ACCESS:     383508  HIT:     207392  MISS:     176116  HIT %:    54.0776  MISS %:    45.9224   MPKI: 0.88058
LLC LOAD      ACCESS:     172534  HIT:      68961  MISS:     103573  HIT %:    39.9695  MISS %:    60.0305   MPKI: 0.517865
LLC RFO       ACCESS:      21602  HIT:       4106  MISS:      17496  HIT %:    19.0075  MISS %:    80.9925   MPKI: 0.08748
LLC PREFETCH  ACCESS:      55228  HIT:       8708  MISS:      46520  HIT %:    15.7674  MISS %:    84.2326   MPKI: 0.2326
LLC WRITEBACK ACCESS:     125056  HIT:     119161  MISS:       5895  HIT %:    95.2861  MISS %:    4.71389   MPKI: 0.029475
LLC LOAD TRANSLATION ACCESS:       8812  HIT:       6398  MISS:       2414  HIT %:    72.6055  MISS %:    27.3945   MPKI: 0.01207
LLC TRANSLATION FROM L1D PREFETCHER ACCESS:        276  HIT:         58  MISS:        218  HIT %:    21.0145  MISS %:    78.9855   MPKI: 0.00109
LLC PREFETCH  REQUESTED:          0  ISSUED:          0  USEFUL:       9567  USELESS:     167367
LLC USEFUL LOAD PREFETCHES:       9567 PREFETCH ISSUED TO LOWER LEVEL:     195569  ACCURACY: 4.89188
LLC TIMELY PREFETCHES:       9567 LATE PREFETCHES: 0 DROPPED PREFETCHES: 0
LLC PREFETCHES SAME FILL-ORIGIN LEVEL: 0 DIFFERENT FILL-ORIGIN LEVEL: 0
LLC AVERAGE MISS LATENCY: 725.599 cycles
LLC RQ	ACCESS:     820911	FORWARD:          0	MERGED:          0	TO_CACHE:     820910
LLC WQ	ACCESS:     496846	FORWARD:          5	MERGED:          0	TO_CACHE:     496846
LLC PQ	ACCESS:     232137	FORWARD:          0	MERGED:          0	TO_CACHE:     232133

LLC Dense regions hint to LLC: 0

RAW hits: 2648146
Loads Generated: 45186070
Loads sent to L1D: 42537925
Stores Generated: 7579564
Stores sent to L1D: 7579566
Major fault: 0 Minor fault: 3857
Allocated PAGES: 14687

CPU 2 cumulative IPC: 1.16043 instructions: 200000000 cycles: 172349787
ITLB TOTAL     ACCESS:   31967974  HIT:   30804819  MISS:    1163155  HIT %:    96.3615  MISS %:     3.6385   MPKI: 5.81578
ITLB LOAD TRANSLATION ACCESS:   31967974  HIT:   30804819  MISS:    1163155  HIT %:    96.3615  MISS %:     3.6385   MPKI: 5.81578
ITLB PREFETCH  REQUESTED:          0  ISSUED:          0  USEFUL:          0  USELESS:          0
ITLB USEFUL LOAD PREFETCHES:          0 PREFETCH ISSUED TO LOWER LEVEL:          0  ACCURACY: -nan
ITLB TIMELY PREFETCHES:          0 LATE PREFETCHES: 0 DROPPED PREFETCHES: 0
ITLB PREFETCHES SAME FILL-ORIGIN LEVEL: 0 DIFFERENT FILL-ORIGIN LEVEL: 0
ITLB AVERAGE MISS LATENCY: 28.934 cycles
ITLB RQ	ACCESS:   39356686	FORWARD:          0	MERGED:    6920340	TO_CACHE:   32436346

DTLB TOTAL     ACCESS:   26673998  HIT:   15343999  MISS:   11329999  HIT %:    57.5242  MISS %:    42.4758   MPKI: 56.65
DTLB LOAD TRANSLATION ACCESS:   26673998  HIT:   15343999  MISS:   11329999  HIT %:    57.5242  MISS %:    42.4758   MPKI: 56.65
DTLB PREFETCH  REQUESTED:          0  ISSUED:          0  USEFUL:          0  USELESS:          0
DTLB USEFUL LOAD PREFETCHES:          0 PREFETCH ISSUED TO LOWER LEVEL:          0  ACCURACY: -nan
DTLB TIMELY PREFETCHES:          0 LATE PREFETCHES: 0 DROPPED PREFETCHES: 0
DTLB PREFETCHES SAME FILL-ORIGIN LEVEL: 0 DIFFERENT FILL-ORIGIN LEVEL: 0
DTLB AVERAGE MISS LATENCY: 12.6558 cycles
DTLB RQ	ACCESS:   35771242	FORWARD:          0	MERGED:    8078932	TO_CACHE:   27692310

STLB TOTAL     ACCESS:   12715946  HIT:   10229691  MISS:    2486255  HIT %:    80.4477  MISS %:    19.5523   MPKI: 12.4313
STLB LOAD TRANSLATION ACCESS:   12493153  HIT:   10013342  MISS:    2479811  HIT %:    80.1506  MISS %:    19.8494   MPKI: 12.3991
STLB TRANSLATION FROM L1D PREFETCHER ACCESS:     222793  HIT:     216349  MISS:       6444  HIT %:    97.1076  MISS %:    2.89237   MPKI: 0.03222
STLB PREFETCH  REQUESTED:          0  ISSUED:          0  USEFUL:       5090  USELESS:       1348
STLB USEFUL LOAD PREFETCHES:       5090 PREFETCH ISSUED TO LOWER LEVEL:          0  ACCURACY: inf
STLB TIMELY PREFETCHES:       5090 LATE PREFETCHES: 0 DROPPED PREFETCHES: 11010
STLB PREFETCHES SAME FILL-ORIGIN LEVEL: 0 DIFFERENT FILL-ORIGIN LEVEL: 0
STLB AVERAGE MISS LATENCY: 25.5461 cycles
STLB RQ	ACCESS:   13446662	FORWARD:          0	MERGED:     717606	TO_CACHE:   12729056

STLB Hit, L1D data hit: 0
STLB Hit, L2C data hit: 0
STLB Hit, LLC data hit: 0
STLB Hit, LLC data miss: 0
STLB STLB hints to L2: 0
L1D TOTAL     ACCESS:   36169405  HIT:   35813544  MISS:     355861  HIT %:    99.0161  MISS %:   0.983873   MPKI: 1.7793
L1D LOAD      ACCESS:   26011868  HIT:   25744725  MISS:     267143  HIT %:     98.973  MISS %:      1.027   MPKI: 1.33571
L1D RFO       ACCESS:    9503364  HIT:    9448335  MISS:      55029  HIT %:     99.421  MISS %:   0.579048   MPKI: 0.275145
L1D PREFETCH  ACCESS:     654173  HIT:     620484  MISS:      33689  HIT %:    94.8501  MISS %:    5.14986   MPKI: 0.168445
L1D PREFETCH  REQUESTED:    2150924  ISSUED:    2147311  USEFUL:      29072  USELESS:       4617
L1D USEFUL LOAD PREFETCHES:      29072 PREFETCH ISSUED TO LOWER LEVEL:     287154  ACCURACY: 10.1242
L1D TIMELY PREFETCHES:      29072 LATE PREFETCHES: 2394 DROPPED PREFETCHES: 22200
L1D PREFETCHES SAME FILL-ORIGIN LEVEL: 36084 DIFFERENT FILL-ORIGIN LEVEL: 251070
L1D AVERAGE MISS LATENCY: 99.8779 cycles
L1D RQ	ACCESS:   41037679	FORWARD:          0	MERGED:   14878283	TO_CACHE:   26032192
L1D WQ	ACCESS:   10781226	FORWARD:     127251	MERGED:    1042176	TO_CACHE:    9739050
L1D PQ	ACCESS:    1193802	FORWARD:          0	MERGED:     240246	TO_CACHE:     953509

L1D UNIQUE REGIONS ACCESSED: 0
L1D REGIONS CONFLICTS: 0
L1D Cross Page Prefetch Requests: 115742
L1D Same Page Prefetch Requests: 1086874
L1D ROI Sum of L1D PQ occupancy: 13643630
L1D PREFETCHES PUSHED FROM L2C: 0
L1I TOTAL     ACCESS:   39069827  HIT:   38254367  MISS:     815460  HIT %:    97.9128  MISS %:    2.08719   MPKI: 4.0773
L1I LOAD      ACCESS:   39069827  HIT:   38254367  MISS:     815460  HIT %:    97.9128  MISS %:    2.08719   MPKI: 4.0773
L1I PREFETCH  REQUESTED:          0  ISSUED:          0  USEFUL:          0  USELESS:          0
L1I USEFUL LOAD PREFETCHES:          0 PREFETCH ISSUED TO LOWER LEVEL:          0  ACCURACY: -nan
L1I TIMELY PREFETCHES:          0 LATE PREFETCHES: 0 DROPPED PREFETCHES: 0
L1I PREFETCHES SAME FILL-ORIGIN LEVEL: 0 DIFFERENT FILL-ORIGIN LEVEL: 0
L1I AVERAGE MISS LATENCY: 17.9769 cycles
L1I RQ	ACCESS:   72003070	FORWARD:          0	MERGED:   32646384	TO_CACHE:   39356686

BTB BRANCH_DIRECT_JUMP	ACCESS:          0  HIT:          0  MISS:          0
BTB BRANCH_INDIRECT	ACCESS:          0  HIT:          0  MISS:          0
BTB BRANCH_CONDITIONAL	ACCESS:          0  HIT:          0  MISS:          0
BTB BRANCH_DIRECT_CALL	ACCESS:          0  HIT:          0  MISS:          0
BTB BRANCH_INDIRECT_CALL	ACCESS:          0  HIT:          0  MISS:          0
BTB BRANCH_RETURN	ACCESS:          0  HIT:          0  MISS:          0
BTB BRANCH_OTHER ACCESS:          0  HIT:          0  MISS:          0

L2C TOTAL     ACCESS:    4214601  HIT:    3901164  MISS:     313437  HIT %:    92.5631  MISS %:    7.43693   MPKI: 1.56719
L2C LOAD      ACCESS:    1080204  HIT:     887882  MISS:     192322  HIT %:    82.1958  MISS %:    17.8042   MPKI: 0.96161
L2C DATA LOAD MPKI: 0.67372
L2C INSTRUCTION LOAD MPKI: 0.28789
L2C RFO       ACCESS:      55009  HIT:      23861  MISS:      31148  HIT %:    43.3765  MISS %:    56.6235   MPKI: 0.15574
L2C PREFETCH  ACCESS:     267346  HIT:     199100  MISS:      68246  HIT %:    74.4728  MISS %:    25.5272   MPKI: 0.34123
L2C DATA PREFETCH MPKI: 0.34123
L2C INSTRUCTION PREFETCH MPKI: 0
L2C WRITEBACK ACCESS:     191964  HIT:     179596  MISS:      12368  HIT %:    93.5571  MISS %:    6.44287   MPKI: 0.06184
L2C LOAD TRANSLATION ACCESS:    2602370  HIT:    2593303  MISS:       9067  HIT %:    99.6516  MISS %:   0.348413   MPKI: 0.045335
L2C TRANSLATION FROM L1D PREFETCHER ACCESS:      17708  HIT:      17422  MISS:        286  HIT %:    98.3849  MISS %:    1.61509   MPKI: 0.00143
L2C PREFETCH  REQUESTED:          0  ISSUED:          0  USEFUL:      32032  USELESS:      36466
L2C USEFUL LOAD PREFETCHES:      32032 PREFETCH ISSUED TO LOWER LEVEL:      69675  ACCURACY: 45.9734
L2C TIMELY PREFETCHES:      32032 LATE PREFETCHES: 1429 DROPPED PREFETCHES: 0
L2C PREFETCHES SAME FILL-ORIGIN LEVEL: 55310 DIFFERENT FILL-ORIGIN LEVEL: 0
L2C AVERAGE MISS LATENCY: 144.433 cycles
L2C RQ	ACCESS:    3755315	FORWARD:          0	MERGED:          0	TO_CACHE:    3755295
L2C WQ	ACCESS:     191964	FORWARD:         20	MERGED:          0	TO_CACHE:     191964
L2C PQ	ACCESS:     287148	FORWARD:          0	MERGED:       1382	TO_CACHE:     285766

L2C Instructions Evicting Data 41106
L2C Translations Evicting Data 6870
L2C Data Evicting Data 188436
L2C Instructions Evicting Instructions 14111
L2C Translations Evicting Instructions 2201
L2C Data Evicting Instructions 38677
L2C Instructions Evicting Translations 2123
L2C Translations Evicting Translations 249
L2C Data Evicting Translations 6510
L2C Dense regions hint from L2: 0
PSCL5 TOTAL     ACCESS:    2497265  HIT:    2497265  MISS:          0  HIT %:        100  MISS %:          0   MPKI: 0
PSCL5 LOAD TRANSLATION ACCESS:    2479811  HIT:    2479811  MISS:          0  HIT %:        100  MISS %:          0   MPKI: 0
PSCL5 TRANSLATION FROM L1D PREFETCHER ACCESS:      17454  HIT:      17454  MISS:          0  HIT %:        100  MISS %:          0   MPKI: 0
PSCL5 PREFETCH  REQUESTED:          0  ISSUED:          0  USEFUL:          0  USELESS:          0
PSCL5 USEFUL LOAD PREFETCHES:          0 PREFETCH ISSUED TO LOWER LEVEL:          0  ACCURACY: -nan
PSCL5 TIMELY PREFETCHES:          0 LATE PREFETCHES: 0 DROPPED PREFETCHES: 0
PSCL5 PREFETCHES SAME FILL-ORIGIN LEVEL: 0 DIFFERENT FILL-ORIGIN LEVEL: 0

PSCL4 TOTAL     ACCESS:    2491420  HIT:    2491259  MISS:        161  HIT %:    99.9935  MISS %: 0.00646218   MPKI: 0.000805
PSCL4 LOAD TRANSLATION ACCESS:    2473973  HIT:    2473812  MISS:        161  HIT %:    99.9935  MISS %: 0.00650775   MPKI: 0.000805
PSCL4 TRANSLATION FROM L1D PREFETCHER ACCESS:      17447  HIT:      17447  MISS:          0  HIT %:        100  MISS %:          0   MPKI: 0
PSCL4 PREFETCH  REQUESTED:          0  ISSUED:          0  USEFUL:          0  USELESS:          0
PSCL4 USEFUL LOAD PREFETCHES:          0 PREFETCH ISSUED TO LOWER LEVEL:          0  ACCURACY: -nan
PSCL4 TIMELY PREFETCHES:          0 LATE PREFETCHES: 0 DROPPED PREFETCHES: 0
PSCL4 PREFETCHES SAME FILL-ORIGIN LEVEL: 0 DIFFERENT FILL-ORIGIN LEVEL: 0

PSCL3 TOTAL     ACCESS:    2475978  HIT:    2471445  MISS:       4533  HIT %:    99.8169  MISS %:   0.183079   MPKI: 0.022665
PSCL3 LOAD TRANSLATION ACCESS:    2458566  HIT:    2454033  MISS:       4533  HIT %:    99.8156  MISS %:   0.184376   MPKI: 0.022665
PSCL3 TRANSLATION FROM L1D PREFETCHER ACCESS:      17412  HIT:      17412  MISS:          0  HIT %:        100  MISS %:          0   MPKI: 0
PSCL3 PREFETCH  REQUESTED:          0  ISSUED:          0  USEFUL:          0  USELESS:          0
PSCL3 USEFUL LOAD PREFETCHES:          0 PREFETCH ISSUED TO LOWER LEVEL:          0  ACCURACY: -nan
PSCL3 TIMELY PREFETCHES:          0 LATE PREFETCHES: 0 DROPPED PREFETCHES: 0
PSCL3 PREFETCHES SAME FILL-ORIGIN LEVEL: 0 DIFFERENT FILL-ORIGIN LEVEL: 0

PSCL2 TOTAL     ACCESS:    2496957  HIT:    2378931  MISS:     118026  HIT %:    95.2732  MISS %:    4.72679   MPKI: 0.59013
PSCL2 LOAD TRANSLATION ACCESS:    2479886  HIT:    2361860  MISS:     118026  HIT %:    95.2407  MISS %:    4.75933   MPKI: 0.59013
PSCL2 TRANSLATION FROM L1D PREFETCHER ACCESS:      17071  HIT:      17071  MISS:          0  HIT %:        100  MISS %:          0   MPKI: 0
PSCL2 PREFETCH  REQUESTED:          0  ISSUED:          0  USEFUL:          0  USELESS:          0
PSCL2 USEFUL LOAD PREFETCHES:          0 PREFETCH ISSUED TO LOWER LEVEL:          0  ACCURACY: -nan
PSCL2 TIMELY PREFETCHES:          0 LATE PREFETCHES: 0 DROPPED PREFETCHES: 0
PSCL2 PREFETCHES SAME FILL-ORIGIN LEVEL: 0 DIFFERENT FILL-ORIGIN LEVEL: 0

LLC TOTAL     ACCESS:     448668  HIT:     242814  MISS:     205854  HIT %:    54.1189  MISS %:    45.8811   MPKI: 1.02927
LLC LOAD      ACCESS:     190894  HIT:      77832  MISS:     113062  HIT %:    40.7724  MISS %:    59.2276   MPKI: 0.56531
LLC RFO       ACCESS:      31146  HIT:       2150  MISS:      28996  HIT %:    6.90297  MISS %:     93.097   MPKI: 0.14498
LLC PREFETCH  ACCESS:      69675  HIT:      13555  MISS:      56120  HIT %:    19.4546  MISS %:    80.5454   MPKI: 0.2806
LLC WRITEBACK ACCESS:     147600  HIT:     142644  MISS:       4956  HIT %:    96.6423  MISS %:    3.35772   MPKI: 0.02478
LLC LOAD TRANSLATION ACCESS:       9067  HIT:       6590  MISS:       2477  HIT %:    72.6812  MISS %:    27.3188   MPKI: 0.012385
LLC TRANSLATION FROM L1D PREFETCHER ACCESS:        286  HIT:         43  MISS:        243  HIT %:     15.035  MISS %:     84.965   MPKI: 0.001215
LLC PREFETCH  REQUESTED:          0  ISSUED:          0  USEFUL:       9567  USELESS:     167367
LLC USEFUL LOAD PREFETCHES:       9567 PREFETCH ISSUED TO LOWER LEVEL:     195569  ACCURACY: 4.89188
LLC TIMELY PREFETCHES:       9567 LATE PREFETCHES: 0 DROPPED PREFETCHES: 0
LLC PREFETCHES SAME FILL-ORIGIN LEVEL: 0 DIFFERENT FILL-ORIGIN LEVEL: 0
LLC AVERAGE MISS LATENCY: 620.777 cycles
LLC RQ	ACCESS:     820911	FORWARD:          0	MERGED:          0	TO_CACHE:     820910
LLC WQ	ACCESS:     496846	FORWARD:          5	MERGED:          0	TO_CACHE:     496846
LLC PQ	ACCESS:     232137	FORWARD:          0	MERGED:          0	TO_CACHE:     232133

LLC Dense regions hint to LLC: 0

RAW hits: 3023346
Loads Generated: 44061034
Loads sent to L1D: 41037679
Stores Generated: 10781225
Stores sent to L1D: 10781226
Major fault: 0 Minor fault: 4023
Allocated PAGES: 14687

CPU 3 cumulative IPC: 1.30144 instructions: 200000001 cycles: 153675872
ITLB TOTAL     ACCESS:   33052522  HIT:   32329805  MISS:     722717  HIT %:    97.8134  MISS %:    2.18657   MPKI: 3.61358
ITLB LOAD TRANSLATION ACCESS:   33052522  HIT:   32329805  MISS:     722717  HIT %:    97.8134  MISS %:    2.18657   MPKI: 3.61358
ITLB PREFETCH  REQUESTED:          0  ISSUED:          0  USEFUL:          0  USELESS:          0
ITLB USEFUL LOAD PREFETCHES:          0 PREFETCH ISSUED TO LOWER LEVEL:          0  ACCURACY: -nan
ITLB TIMELY PREFETCHES:          0 LATE PREFETCHES: 0 DROPPED PREFETCHES: 0
ITLB PREFETCHES SAME FILL-ORIGIN LEVEL: 0 DIFFERENT FILL-ORIGIN LEVEL: 0
ITLB AVERAGE MISS LATENCY: 32.0199 cycles
ITLB RQ	ACCESS:   44753600	FORWARD:          0	MERGED:    7149409	TO_CACHE:   37604191

DTLB TOTAL     ACCESS:   25560490  HIT:   12872864  MISS:   12687626  HIT %:    50.3624  MISS %:    49.6376   MPKI: 63.4381
DTLB LOAD TRANSLATION ACCESS:   25560490  HIT:   12872864  MISS:   12687626  HIT %:    50.3624  MISS %:    49.6376   MPKI: 63.4381
DTLB PREFETCH  REQUESTED:          0  ISSUED:          0  USEFUL:          0  USELESS:          0
DTLB USEFUL LOAD PREFETCHES:          0 PREFETCH ISSUED TO LOWER LEVEL:          0  ACCURACY: -nan
DTLB TIMELY PREFETCHES:          0 LATE PREFETCHES: 0 DROPPED PREFETCHES: 0
DTLB PREFETCHES SAME FILL-ORIGIN LEVEL: 0 DIFFERENT FILL-ORIGIN LEVEL: 0
DTLB AVERAGE MISS LATENCY: 12.4152 cycles
DTLB RQ	ACCESS:   37963763	FORWARD:          0	MERGED:    8127595	TO_CACHE:   29836168

STLB TOTAL     ACCESS:   13523054  HIT:   12045511  MISS:    1477543  HIT %:    89.0739  MISS %:    10.9261   MPKI: 7.38771
STLB LOAD TRANSLATION ACCESS:   13410343  HIT:   11936156  MISS:    1474187  HIT %:    89.0071  MISS %:    10.9929   MPKI: 7.37093
STLB TRANSLATION FROM L1D PREFETCHER ACCESS:     112711  HIT:     109355  MISS:       3356  HIT %:    97.0225  MISS %:    2.97753   MPKI: 0.01678
STLB PREFETCH  REQUESTED:          0  ISSUED:          0  USEFUL:       2831  USELESS:        687
STLB USEFUL LOAD PREFETCHES:       2831 PREFETCH ISSUED TO LOWER LEVEL:          0  ACCURACY: inf
STLB TIMELY PREFETCHES:       2831 LATE PREFETCHES: 0 DROPPED PREFETCHES: 7146
STLB PREFETCHES SAME FILL-ORIGIN LEVEL: 0 DIFFERENT FILL-ORIGIN LEVEL: 0
STLB AVERAGE MISS LATENCY: 28.5138 cycles
STLB RQ	ACCESS:   15653223	FORWARD:          0	MERGED:     327313	TO_CACHE:   15325910

STLB Hit, L1D data hit: 0
STLB Hit, L2C data hit: 0
STLB Hit, LLC data hit: 0
STLB Hit, LLC data miss: 0
STLB STLB hints to L2: 0
L1D TOTAL     ACCESS:   33917145  HIT:   33691873  MISS:     225272  HIT %:    99.3358  MISS %:   0.664183   MPKI: 1.12636
L1D LOAD      ACCESS:   27212090  HIT:   27047825  MISS:     164265  HIT %:    99.3964  MISS %:   0.603647   MPKI: 0.821325
L1D RFO       ACCESS:    6437688  HIT:    6398547  MISS:      39141  HIT %:     99.392  MISS %:   0.607998   MPKI: 0.195705
L1D PREFETCH  ACCESS:     267367  HIT:     245501  MISS:      21866  HIT %:    91.8217  MISS %:    8.17827   MPKI: 0.10933
L1D PREFETCH  REQUESTED:    1005133  ISSUED:    1002946  USEFUL:      19271  USELESS:       3062
L1D USEFUL LOAD PREFETCHES:      19271 PREFETCH ISSUED TO LOWER LEVEL:     173156  ACCURACY: 11.1293
L1D TIMELY PREFETCHES:      19271 LATE PREFETCHES: 1689 DROPPED PREFETCHES: 15496
L1D PREFETCHES SAME FILL-ORIGIN LEVEL: 24167 DIFFERENT FILL-ORIGIN LEVEL: 148989
L1D AVERAGE MISS LATENCY: 99.0508 cycles
L1D RQ	ACCESS:   48210890	FORWARD:          0	MERGED:   17302172	TO_CACHE:   30774488
L1D WQ	ACCESS:    8437718	FORWARD:     134263	MERGED:    1248443	TO_CACHE:    7189275
L1D PQ	ACCESS:     551195	FORWARD:          0	MERGED:      99411	TO_CACHE:     451751

L1D UNIQUE REGIONS ACCESSED: 0
L1D REGIONS CONFLICTS: 0
L1D Cross Page Prefetch Requests: 65099
L1D Same Page Prefetch Requests: 486096
L1D ROI Sum of L1D PQ occupancy: 6526460
L1D PREFETCHES PUSHED FROM L2C: 0
L1I TOTAL     ACCESS:   39538820  HIT:   38964195  MISS:     574625  HIT %:    98.5467  MISS %:    1.45332   MPKI: 2.87312
L1I LOAD      ACCESS:   39538820  HIT:   38964195  MISS:     574625  HIT %:    98.5467  MISS %:    1.45332   MPKI: 2.87312
L1I PREFETCH  REQUESTED:          0  ISSUED:          0  USEFUL:          0  USELESS:          0
L1I USEFUL LOAD PREFETCHES:          0 PREFETCH ISSUED TO LOWER LEVEL:          0  ACCURACY: -nan
L1I TIMELY PREFETCHES:          0 LATE PREFETCHES: 0 DROPPED PREFETCHES: 0
L1I PREFETCHES SAME FILL-ORIGIN LEVEL: 0 DIFFERENT FILL-ORIGIN LEVEL: 0
L1I AVERAGE MISS LATENCY: 23.7925 cycles
L1I RQ	ACCESS:   86159259	FORWARD:          0	MERGED:   41405659	TO_CACHE:   44753600

BTB BRANCH_DIRECT_JUMP	ACCESS:          0  HIT:          0  MISS:          0
BTB BRANCH_INDIRECT	ACCESS:          0  HIT:          0  MISS:          0
BTB BRANCH_CONDITIONAL	ACCESS:          0  HIT:          0  MISS:          0
BTB BRANCH_DIRECT_CALL	ACCESS:          0  HIT:          0  MISS:          0
BTB BRANCH_INDIRECT_CALL	ACCESS:          0  HIT:          0  MISS:          0
BTB BRANCH_RETURN	ACCESS:          0  HIT:          0  MISS:          0
BTB BRANCH_OTHER ACCESS:          0  HIT:          0  MISS:          0

L2C TOTAL     ACCESS:    2620460  HIT:    2403079  MISS:     217381  HIT %:    91.7045  MISS %:    8.29553   MPKI: 1.0869
L2C LOAD      ACCESS:     737241  HIT:     602892  MISS:     134349  HIT %:    81.7768  MISS %:    18.2232   MPKI: 0.671745
L2C DATA LOAD MPKI: 0.391785
L2C INSTRUCTION LOAD MPKI: 0.27996
L2C RFO       ACCESS:      39128  HIT:      18973  MISS:      20155  HIT %:    48.4896  MISS %:    51.5104   MPKI: 0.100775
L2C PREFETCH  ACCESS:     153832  HIT:     110486  MISS:      43346  HIT %:    71.8225  MISS %:    28.1775   MPKI: 0.21673
L2C DATA PREFETCH MPKI: 0.21673
L2C INSTRUCTION PREFETCH MPKI: 0
L2C WRITEBACK ACCESS:     119825  HIT:     108213  MISS:      11612  HIT %:    90.3092  MISS %:     9.6908   MPKI: 0.05806
L2C LOAD TRANSLATION ACCESS:    1559966  HIT:    1552243  MISS:       7723  HIT %:    99.5049  MISS %:   0.495075   MPKI: 0.038615
L2C TRANSLATION FROM L1D PREFETCHER ACCESS:      10468  HIT:      10272  MISS:        196  HIT %:    98.1276  MISS %:    1.87237   MPKI: 0.00098
L2C PREFETCH  REQUESTED:          0  ISSUED:          0  USEFUL:      21584  USELESS:      22798
L2C USEFUL LOAD PREFETCHES:      21584 PREFETCH ISSUED TO LOWER LEVEL:      45354  ACCURACY: 47.5901
L2C TIMELY PREFETCHES:      21584 LATE PREFETCHES: 989 DROPPED PREFETCHES: 0
L2C PREFETCHES SAME FILL-ORIGIN LEVEL: 35718 DIFFERENT FILL-ORIGIN LEVEL: 0
L2C AVERAGE MISS LATENCY: 145.757 cycles
L2C RQ	ACCESS:    2608336	FORWARD:          0	MERGED:          0	TO_CACHE:    2608323
L2C WQ	ACCESS:     127495	FORWARD:         13	MERGED:          0	TO_CACHE:     127495
L2C PQ	ACCESS:     173015	FORWARD:          0	MERGED:        848	TO_CACHE:     172167

L2C Instructions Evicting Data 38982
L2C Translations Evicting Data 5505
L2C Data Evicting Data 108593
L2C Instructions Evicting Instructions 21954
L2C Translations Evicting Instructions 2899
L2C Data Evicting Instructions 35544
L2C Instructions Evicting Translations 2788
L2C Translations Evicting Translations 390
L2C Data Evicting Translations 5142
L2C Dense regions hint from L2: 0
PSCL5 TOTAL     ACCESS:    1484619  HIT:    1484619  MISS:          0  HIT %:        100  MISS %:          0   MPKI: 0
PSCL5 LOAD TRANSLATION ACCESS:    1474187  HIT:    1474187  MISS:          0  HIT %:        100  MISS %:          0   MPKI: 0
PSCL5 TRANSLATION FROM L1D PREFETCHER ACCESS:      10432  HIT:      10432  MISS:          0  HIT %:        100  MISS %:          0   MPKI: 0
PSCL5 PREFETCH  REQUESTED:          0  ISSUED:          0  USEFUL:          0  USELESS:          0
PSCL5 USEFUL LOAD PREFETCHES:          0 PREFETCH ISSUED TO LOWER LEVEL:          0  ACCURACY: -nan
PSCL5 TIMELY PREFETCHES:          0 LATE PREFETCHES: 0 DROPPED PREFETCHES: 0
PSCL5 PREFETCHES SAME FILL-ORIGIN LEVEL: 0 DIFFERENT FILL-ORIGIN LEVEL: 0

PSCL4 TOTAL     ACCESS:    1480532  HIT:    1480345  MISS:        187  HIT %:    99.9874  MISS %:  0.0126306   MPKI: 0.000935
PSCL4 LOAD TRANSLATION ACCESS:    1470118  HIT:    1469931  MISS:        187  HIT %:    99.9873  MISS %:  0.0127201   MPKI: 0.000935
PSCL4 TRANSLATION FROM L1D PREFETCHER ACCESS:      10414  HIT:      10414  MISS:          0  HIT %:        100  MISS %:          0   MPKI: 0
PSCL4 PREFETCH  REQUESTED:          0  ISSUED:          0  USEFUL:          0  USELESS:          0
PSCL4 USEFUL LOAD PREFETCHES:          0 PREFETCH ISSUED TO LOWER LEVEL:          0  ACCURACY: -nan
PSCL4 TIMELY PREFETCHES:          0 LATE PREFETCHES: 0 DROPPED PREFETCHES: 0
PSCL4 PREFETCHES SAME FILL-ORIGIN LEVEL: 0 DIFFERENT FILL-ORIGIN LEVEL: 0

PSCL3 TOTAL     ACCESS:    1464622  HIT:    1461112  MISS:       3510  HIT %:    99.7603  MISS %:   0.239652   MPKI: 0.01755
PSCL3 LOAD TRANSLATION ACCESS:    1454249  HIT:    1450739  MISS:       3510  HIT %:    99.7586  MISS %:   0.241362   MPKI: 0.01755
PSCL3 TRANSLATION FROM L1D PREFETCHER ACCESS:      10373  HIT:      10373  MISS:          0  HIT %:        100  MISS %:          0   MPKI: 0
PSCL3 PREFETCH  REQUESTED:          0  ISSUED:          0  USEFUL:          0  USELESS:          0
PSCL3 USEFUL LOAD PREFETCHES:          0 PREFETCH ISSUED TO LOWER LEVEL:          0  ACCURACY: -nan
PSCL3 TIMELY PREFETCHES:          0 LATE PREFETCHES: 0 DROPPED PREFETCHES: 0
PSCL3 PREFETCHES SAME FILL-ORIGIN LEVEL: 0 DIFFERENT FILL-ORIGIN LEVEL: 0

PSCL2 TOTAL     ACCESS:    1484597  HIT:    1402364  MISS:      82233  HIT %:    94.4609  MISS %:    5.53908   MPKI: 0.411165
PSCL2 LOAD TRANSLATION ACCESS:    1474213  HIT:    1391980  MISS:      82233  HIT %:    94.4219  MISS %:    5.57809   MPKI: 0.411165
PSCL2 TRANSLATION FROM L1D PREFETCHER ACCESS:      10384  HIT:      10384  MISS:          0  HIT %:        100  MISS %:          0   MPKI: 0
PSCL2 PREFETCH  REQUESTED:          0  ISSUED:          0  USEFUL:          0  USELESS:          0
PSCL2 USEFUL LOAD PREFETCHES:          0 PREFETCH ISSUED TO LOWER LEVEL:          0  ACCURACY: -nan
PSCL2 TIMELY PREFETCHES:          0 LATE PREFETCHES: 0 DROPPED PREFETCHES: 0
PSCL2 PREFETCHES SAME FILL-ORIGIN LEVEL: 0 DIFFERENT FILL-ORIGIN LEVEL: 0

LLC TOTAL     ACCESS:     291208  HIT:     157401  MISS:     133807  HIT %:    54.0511  MISS %:    45.9489   MPKI: 0.669035
LLC LOAD      ACCESS:     133421  HIT:      61785  MISS:      71636  HIT %:    46.3083  MISS %:    53.6917   MPKI: 0.35818
LLC RFO       ACCESS:      20151  HIT:       2615  MISS:      17536  HIT %:     12.977  MISS %:     87.023   MPKI: 0.08768
LLC PREFETCH  ACCESS:      44277  HIT:       7270  MISS:      37007  HIT %:    16.4194  MISS %:    83.5806   MPKI: 0.185035
LLC WRITEBACK ACCESS:      85440  HIT:      80139  MISS:       5301  HIT %:    93.7956  MISS %:    6.20435   MPKI: 0.026505
LLC LOAD TRANSLATION ACCESS:       7723  HIT:       5543  MISS:       2180  HIT %:    71.7726  MISS %:    28.2274   MPKI: 0.0109
LLC TRANSLATION FROM L1D PREFETCHER ACCESS:        196  HIT:         49  MISS:        147  HIT %:         25  MISS %:         75   MPKI: 0.000735
LLC PREFETCH  REQUESTED:          0  ISSUED:          0  USEFUL:       9567  USELESS:     167367
LLC USEFUL LOAD PREFETCHES:       9567 PREFETCH ISSUED TO LOWER LEVEL:     195569  ACCURACY: 4.89188
LLC TIMELY PREFETCHES:       9567 LATE PREFETCHES: 0 DROPPED PREFETCHES: 0
LLC PREFETCHES SAME FILL-ORIGIN LEVEL: 0 DIFFERENT FILL-ORIGIN LEVEL: 0
LLC AVERAGE MISS LATENCY: 955.029 cycles
LLC RQ	ACCESS:     820911	FORWARD:          0	MERGED:          0	TO_CACHE:     820910
LLC WQ	ACCESS:     496846	FORWARD:          5	MERGED:          0	TO_CACHE:     496846
LLC PQ	ACCESS:     232137	FORWARD:          0	MERGED:          0	TO_CACHE:     232133

LLC Dense regions hint to LLC: 0

RAW hits: 2878873
Loads Generated: 45524154
Loads sent to L1D: 42645279
Stores Generated: 7705680
Stores sent to L1D: 7705680
Major fault: 0 Minor fault: 3412
Allocated PAGES: 14687

DRAM Statistics
 CHANNEL 0
 RQ ROW_BUFFER_HIT:     197567  ROW_BUFFER_MISS:     501491
 DBUS_CONGESTED:        799
 WQ ROW_BUFFER_HIT:      99609  ROW_BUFFER_MISS:     301400  FULL:          0

 AVG_CONGESTED_CYCLE: 5
 All warmup complete: 5
Channel 0 Bank busy for read cycles: 0
Channel 0 Bank busy for write cycles: 0
Channel 0
Rank 0
0banks busy for read cycles: 100447480
0banks busy for write cycles: 60054
1banks busy for read cycles: 26675259
1banks busy for write cycles: 7930740
2banks busy for read cycles: 12367082
2banks busy for write cycles: 4092070
3banks busy for read cycles: 4648377
3banks busy for write cycles: 2478846
4banks busy for read cycles: 1655461
4banks busy for write cycles: 1785875
5banks busy for read cycles: 724250
5banks busy for write cycles: 1428566
6banks busy for read cycles: 449050
6banks busy for write cycles: 1311206
7banks busy for read cycles: 345140
7banks busy for write cycles: 1597097
8banks busy for read cycles: 638275
8banks busy for write cycles: 3714960

CPU 0 Branch Prediction Accuracy: 99.5422% MPKI: 1.0484 Average ROB Occupancy at Mispredict: 57.6806
Branch types
NOT_BRANCH: 0 0%
BRANCH_DIRECT_JUMP: 0 0%
BRANCH_INDIRECT: 0 0%
BRANCH_CONDITIONAL: 0 0%
BRANCH_DIRECT_CALL: 0 0%
BRANCH_INDIRECT_CALL: 0 0%
BRANCH_RETURN: 0 0%
BRANCH_OTHER: 0 0%


CPU 1 Branch Prediction Accuracy: 99.6657% MPKI: 0.77962 Average ROB Occupancy at Mispredict: 57.0291
Branch types
NOT_BRANCH: 0 0%
BRANCH_DIRECT_JUMP: 0 0%
BRANCH_INDIRECT: 0 0%
BRANCH_CONDITIONAL: 0 0%
BRANCH_DIRECT_CALL: 0 0%
BRANCH_INDIRECT_CALL: 0 0%
BRANCH_RETURN: 0 0%
BRANCH_OTHER: 0 0%


CPU 2 Branch Prediction Accuracy: 99.1894% MPKI: 1.71934 Average ROB Occupancy at Mispredict: 62.3619
Branch types
NOT_BRANCH: 0 0%
BRANCH_DIRECT_JUMP: 0 0%
BRANCH_INDIRECT: 0 0%
BRANCH_CONDITIONAL: 0 0%
BRANCH_DIRECT_CALL: 0 0%
BRANCH_INDIRECT_CALL: 0 0%
BRANCH_RETURN: 0 0%
BRANCH_OTHER: 0 0%


CPU 3 Branch Prediction Accuracy: 99.5219% MPKI: 1.10261 Average ROB Occupancy at Mispredict: 55.5864
Branch types
NOT_BRANCH: 0 0%
BRANCH_DIRECT_JUMP: 0 0%
BRANCH_INDIRECT: 0 0%
BRANCH_CONDITIONAL: 0 0%
BRANCH_DIRECT_CALL: 0 0%
BRANCH_INDIRECT_CALL: 0 0%
BRANCH_RETURN: 0 0%
BRANCH_OTHER: 0 0%

DRAM PAGES: 1048576
Allocated PAGES: 14687
