
*** ChampSim Multicore Out-of-Order Simulator ***

Warmup Instructions: 50000000
Simulation Instructions: 200000000
Number of CPUs: 4
LLC sets: 8192
LLC ways: 16
Off-chip DRAM Size: 4096 MB Channels: 1 Width: 64-bit Data Rate: 6400 MT/s
CPU 0 runs ./traces/ligra/ligra_BFSCC.com-lj.ungraph.gcc_6.3.0_O3.drop_6750M.length_250M.champsimtrace.xz
.xz
CPU 1 runs ./traces/ligra/ligra_BFSCC.com-lj.ungraph.gcc_6.3.0_O3.drop_6750M.length_250M.champsimtrace.xz
.xz
CPU 2 runs ./traces/ligra/ligra_BFSCC.com-lj.ungraph.gcc_6.3.0_O3.drop_6750M.length_250M.champsimtrace.xz
.xz
CPU 3 runs ./traces/ligra/ligra_BFSCC.com-lj.ungraph.gcc_6.3.0_O3.drop_6750M.length_250M.champsimtrace.xz
.xz
BTB has LRU replacement policy
ITLB has LRU replacement policy
DTLB has LRU replacement policy
STLB has LRU replacement policy
L1I has LRU replacement policy
History Sets: 8
History Ways: 16
BERTI Size: 16
BERTI Stride Size: 8
L1D has LRU replacement policy
Initialize SRRIP state for L2C
Initialize DRRIP state for LLC
BTB has LRU replacement policy
ITLB has LRU replacement policy
DTLB has LRU replacement policy
STLB has LRU replacement policy
L1I has LRU replacement policy
History Sets: 8
History Ways: 16
BERTI Size: 16
BERTI Stride Size: 8
L1D has LRU replacement policy
Initialize SRRIP state for L2C
Initialize DRRIP state for LLC
BTB has LRU replacement policy
ITLB has LRU replacement policy
DTLB has LRU replacement policy
STLB has LRU replacement policy
L1I has LRU replacement policy
History Sets: 8
History Ways: 16
BERTI Size: 16
BERTI Stride Size: 8
L1D has LRU replacement policy
Initialize SRRIP state for L2C
Initialize DRRIP state for LLC
BTB has LRU replacement policy
ITLB has LRU replacement policy
DTLB has LRU replacement policy
STLB has LRU replacement policy
L1I has LRU replacement policy
History Sets: 8
History Ways: 16
BERTI Size: 16
BERTI Stride Size: 8
L1D has LRU replacement policy
Initialize SRRIP state for L2C
Initialize DRRIP state for LLC
Heartbeat CPU 0 instructions: 10000002 cycles: 2993814 heartbeat IPC: 3.34022 cumulative IPC: 3.34022 (Simulation time: 0 hr 2 min 25 sec) 
Heartbeat CPU 3 instructions: 10000002 cycles: 2993819 heartbeat IPC: 3.34022 cumulative IPC: 3.34022 (Simulation time: 0 hr 2 min 25 sec) 
Heartbeat CPU 2 instructions: 10000002 cycles: 2993844 heartbeat IPC: 3.34019 cumulative IPC: 3.34019 (Simulation time: 0 hr 2 min 25 sec) 
Heartbeat CPU 1 instructions: 10000002 cycles: 2993853 heartbeat IPC: 3.34018 cumulative IPC: 3.34018 (Simulation time: 0 hr 2 min 25 sec) 
Heartbeat CPU 0 instructions: 20000003 cycles: 5991187 heartbeat IPC: 3.33626 cumulative IPC: 3.33824 (Simulation time: 0 hr 5 min 4 sec) 
Heartbeat CPU 3 instructions: 20000003 cycles: 5991192 heartbeat IPC: 3.33626 cumulative IPC: 3.33823 (Simulation time: 0 hr 5 min 4 sec) 
Heartbeat CPU 2 instructions: 20000003 cycles: 5991217 heartbeat IPC: 3.33626 cumulative IPC: 3.33822 (Simulation time: 0 hr 5 min 4 sec) 
Heartbeat CPU 1 instructions: 20000003 cycles: 5991224 heartbeat IPC: 3.33626 cumulative IPC: 3.33822 (Simulation time: 0 hr 5 min 4 sec) 
Heartbeat CPU 0 instructions: 30000003 cycles: 8987382 heartbeat IPC: 3.33757 cumulative IPC: 3.33801 (Simulation time: 0 hr 7 min 35 sec) 
Heartbeat CPU 3 instructions: 30000003 cycles: 8987387 heartbeat IPC: 3.33757 cumulative IPC: 3.33801 (Simulation time: 0 hr 7 min 35 sec) 
Heartbeat CPU 2 instructions: 30000003 cycles: 8987412 heartbeat IPC: 3.33757 cumulative IPC: 3.338 (Simulation time: 0 hr 7 min 35 sec) 
Heartbeat CPU 1 instructions: 30000003 cycles: 8987419 heartbeat IPC: 3.33757 cumulative IPC: 3.338 (Simulation time: 0 hr 7 min 35 sec) 
Heartbeat CPU 0 instructions: 40000003 cycles: 11964413 heartbeat IPC: 3.35905 cumulative IPC: 3.34325 (Simulation time: 0 hr 10 min 21 sec) 
Heartbeat CPU 3 instructions: 40000003 cycles: 11964414 heartbeat IPC: 3.35906 cumulative IPC: 3.34325 (Simulation time: 0 hr 10 min 21 sec) 
Heartbeat CPU 2 instructions: 40000003 cycles: 11964444 heartbeat IPC: 3.35905 cumulative IPC: 3.34324 (Simulation time: 0 hr 10 min 21 sec) 
Heartbeat CPU 1 instructions: 40000003 cycles: 11964450 heartbeat IPC: 3.35905 cumulative IPC: 3.34324 (Simulation time: 0 hr 10 min 21 sec) 
Heartbeat CPU 3 instructions: 50000002 cycles: 14940077 heartbeat IPC: 3.3606 cumulative IPC: 3.3467 (Simulation time: 0 hr 13 min 5 sec) 
Heartbeat CPU 0 instructions: 50000002 cycles: 14940078 heartbeat IPC: 3.36059 cumulative IPC: 3.3467 (Simulation time: 0 hr 13 min 5 sec) 
Heartbeat CPU 2 instructions: 50000002 cycles: 14940109 heartbeat IPC: 3.36059 cumulative IPC: 3.3467 (Simulation time: 0 hr 13 min 5 sec) 
Heartbeat CPU 1 instructions: 50000002 cycles: 14940114 heartbeat IPC: 3.36059 cumulative IPC: 3.34669 (Simulation time: 0 hr 13 min 5 sec) 

Warmup complete CPU 0 instructions: 50000108 cycles: 14940114 (Simulation time: 0 hr 13 min 5 sec) 
Warmup complete CPU 1 instructions: 50000002 cycles: 14940114 (Simulation time: 0 hr 13 min 5 sec) 
Warmup complete CPU 2 instructions: 50000013 cycles: 14940113 (Simulation time: 0 hr 13 min 5 sec) 
Warmup complete CPU 3 instructions: 50000108 cycles: 14940113 (Simulation time: 0 hr 13 min 5 sec) 

Heartbeat CPU 3 instructions: 60000001 cycles: 24242174 heartbeat IPC: 1.07503 cumulative IPC: 1.07502 (Simulation time: 0 hr 17 min 5 sec) 
Heartbeat CPU 0 instructions: 60000001 cycles: 24242276 heartbeat IPC: 1.07501 cumulative IPC: 1.07501 (Simulation time: 0 hr 17 min 5 sec) 
Heartbeat CPU 2 instructions: 60000001 cycles: 24242378 heartbeat IPC: 1.07501 cumulative IPC: 1.07501 (Simulation time: 0 hr 17 min 5 sec) 
Heartbeat CPU 1 instructions: 60000001 cycles: 24243438 heartbeat IPC: 1.07488 cumulative IPC: 1.07488 (Simulation time: 0 hr 17 min 5 sec) 
Heartbeat CPU 3 instructions: 70000000 cycles: 33532094 heartbeat IPC: 1.07644 cumulative IPC: 1.07573 (Simulation time: 0 hr 20 min 53 sec) 
Heartbeat CPU 0 instructions: 70000000 cycles: 33532896 heartbeat IPC: 1.07635 cumulative IPC: 1.07568 (Simulation time: 0 hr 20 min 53 sec) 
Heartbeat CPU 2 instructions: 70000000 cycles: 33532947 heartbeat IPC: 1.07636 cumulative IPC: 1.07568 (Simulation time: 0 hr 20 min 53 sec) 
Heartbeat CPU 1 instructions: 70000000 cycles: 33533469 heartbeat IPC: 1.07642 cumulative IPC: 1.07565 (Simulation time: 0 hr 20 min 53 sec) 
Heartbeat CPU 3 instructions: 80000002 cycles: 42722557 heartbeat IPC: 1.08808 cumulative IPC: 1.07981 (Simulation time: 0 hr 24 min 41 sec) 
Heartbeat CPU 0 instructions: 80000002 cycles: 42722759 heartbeat IPC: 1.08816 cumulative IPC: 1.07981 (Simulation time: 0 hr 24 min 41 sec) 
Heartbeat CPU 2 instructions: 80000002 cycles: 42722810 heartbeat IPC: 1.08816 cumulative IPC: 1.07981 (Simulation time: 0 hr 24 min 41 sec) 
Heartbeat CPU 1 instructions: 80000002 cycles: 42723180 heartbeat IPC: 1.08817 cumulative IPC: 1.07979 (Simulation time: 0 hr 24 min 41 sec) 
Heartbeat CPU 3 instructions: 90000000 cycles: 51911332 heartbeat IPC: 1.08828 cumulative IPC: 1.08192 (Simulation time: 0 hr 28 min 27 sec) 
Heartbeat CPU 0 instructions: 90000000 cycles: 51911585 heartbeat IPC: 1.08828 cumulative IPC: 1.08191 (Simulation time: 0 hr 28 min 27 sec) 
Heartbeat CPU 2 instructions: 90000000 cycles: 51911636 heartbeat IPC: 1.08828 cumulative IPC: 1.08191 (Simulation time: 0 hr 28 min 27 sec) 
Heartbeat CPU 1 instructions: 90000000 cycles: 51911738 heartbeat IPC: 1.08831 cumulative IPC: 1.08191 (Simulation time: 0 hr 28 min 27 sec) 
Heartbeat CPU 3 instructions: 100000002 cycles: 61115801 heartbeat IPC: 1.08643 cumulative IPC: 1.08282 (Simulation time: 0 hr 32 min 3 sec) 
Heartbeat CPU 0 instructions: 100000002 cycles: 61115852 heartbeat IPC: 1.08645 cumulative IPC: 1.08282 (Simulation time: 0 hr 32 min 3 sec) 
Heartbeat CPU 2 instructions: 100000002 cycles: 61115905 heartbeat IPC: 1.08645 cumulative IPC: 1.08282 (Simulation time: 0 hr 32 min 3 sec) 
Heartbeat CPU 1 instructions: 100000002 cycles: 61116007 heartbeat IPC: 1.08645 cumulative IPC: 1.08282 (Simulation time: 0 hr 32 min 3 sec) 
Heartbeat CPU 3 instructions: 110000000 cycles: 70343683 heartbeat IPC: 1.08367 cumulative IPC: 1.08296 (Simulation time: 0 hr 35 min 54 sec) 
Heartbeat CPU 0 instructions: 110000000 cycles: 70343785 heartbeat IPC: 1.08367 cumulative IPC: 1.08296 (Simulation time: 0 hr 35 min 54 sec) 
Heartbeat CPU 2 instructions: 110000000 cycles: 70343896 heartbeat IPC: 1.08366 cumulative IPC: 1.08296 (Simulation time: 0 hr 35 min 54 sec) 
Heartbeat CPU 1 instructions: 110000000 cycles: 70345389 heartbeat IPC: 1.0835 cumulative IPC: 1.08293 (Simulation time: 0 hr 35 min 54 sec) 
Heartbeat CPU 3 instructions: 120000000 cycles: 79540899 heartbeat IPC: 1.08729 cumulative IPC: 1.08358 (Simulation time: 0 hr 39 min 27 sec) 
Heartbeat CPU 0 instructions: 120000000 cycles: 79540950 heartbeat IPC: 1.08729 cumulative IPC: 1.08358 (Simulation time: 0 hr 39 min 27 sec) 
Heartbeat CPU 2 instructions: 120000000 cycles: 79541001 heartbeat IPC: 1.0873 cumulative IPC: 1.08358 (Simulation time: 0 hr 39 min 27 sec) 
Heartbeat CPU 1 instructions: 120000000 cycles: 79545097 heartbeat IPC: 1.08699 cumulative IPC: 1.08351 (Simulation time: 0 hr 39 min 27 sec) 
Heartbeat CPU 3 instructions: 130000001 cycles: 88719739 heartbeat IPC: 1.08946 cumulative IPC: 1.08431 (Simulation time: 0 hr 43 min 2 sec) 
Heartbeat CPU 0 instructions: 130000001 cycles: 88720053 heartbeat IPC: 1.08943 cumulative IPC: 1.0843 (Simulation time: 0 hr 43 min 2 sec) 
Heartbeat CPU 2 instructions: 130000001 cycles: 88720155 heartbeat IPC: 1.08943 cumulative IPC: 1.0843 (Simulation time: 0 hr 43 min 2 sec) 
Heartbeat CPU 1 instructions: 130000001 cycles: 88724598 heartbeat IPC: 1.08938 cumulative IPC: 1.08424 (Simulation time: 0 hr 43 min 2 sec) 
Heartbeat CPU 3 instructions: 140000002 cycles: 97830538 heartbeat IPC: 1.0976 cumulative IPC: 1.08577 (Simulation time: 0 hr 47 min 10 sec) 
Heartbeat CPU 0 instructions: 140000002 cycles: 97830640 heartbeat IPC: 1.09762 cumulative IPC: 1.08577 (Simulation time: 0 hr 47 min 10 sec) 
Heartbeat CPU 2 instructions: 140000002 cycles: 97831224 heartbeat IPC: 1.09757 cumulative IPC: 1.08576 (Simulation time: 0 hr 47 min 10 sec) 
Heartbeat CPU 1 instructions: 140000002 cycles: 97837058 heartbeat IPC: 1.0974 cumulative IPC: 1.08569 (Simulation time: 0 hr 47 min 10 sec) 
Heartbeat CPU 3 instructions: 150000000 cycles: 106927895 heartbeat IPC: 1.09922 cumulative IPC: 1.0871 (Simulation time: 0 hr 51 min 6 sec) 
Heartbeat CPU 0 instructions: 150000000 cycles: 106927946 heartbeat IPC: 1.09923 cumulative IPC: 1.0871 (Simulation time: 0 hr 51 min 6 sec) 
Heartbeat CPU 2 instructions: 150000000 cycles: 106927997 heartbeat IPC: 1.09929 cumulative IPC: 1.0871 (Simulation time: 0 hr 51 min 6 sec) 
Heartbeat CPU 1 instructions: 150000000 cycles: 106934928 heartbeat IPC: 1.09916 cumulative IPC: 1.08702 (Simulation time: 0 hr 51 min 6 sec) 
Heartbeat CPU 3 instructions: 160000001 cycles: 115984727 heartbeat IPC: 1.10414 cumulative IPC: 1.08863 (Simulation time: 0 hr 54 min 54 sec) 
Heartbeat CPU 0 instructions: 160000001 cycles: 115984829 heartbeat IPC: 1.10413 cumulative IPC: 1.08863 (Simulation time: 0 hr 54 min 54 sec) 
Heartbeat CPU 2 instructions: 160000001 cycles: 115984931 heartbeat IPC: 1.10413 cumulative IPC: 1.08863 (Simulation time: 0 hr 54 min 54 sec) 
Heartbeat CPU 1 instructions: 160000001 cycles: 115992394 heartbeat IPC: 1.10406 cumulative IPC: 1.08855 (Simulation time: 0 hr 54 min 54 sec) 
Heartbeat CPU 3 instructions: 170000001 cycles: 125080966 heartbeat IPC: 1.09936 cumulative IPC: 1.08951 (Simulation time: 0 hr 58 min 38 sec) 
Heartbeat CPU 0 instructions: 170000001 cycles: 125081064 heartbeat IPC: 1.09936 cumulative IPC: 1.08951 (Simulation time: 0 hr 58 min 38 sec) 
Heartbeat CPU 2 instructions: 170000001 cycles: 125081169 heartbeat IPC: 1.09936 cumulative IPC: 1.08951 (Simulation time: 0 hr 58 min 38 sec) 
Heartbeat CPU 1 instructions: 170000001 cycles: 125090539 heartbeat IPC: 1.09913 cumulative IPC: 1.08942 (Simulation time: 0 hr 58 min 38 sec) 
Heartbeat CPU 3 instructions: 180000002 cycles: 134216957 heartbeat IPC: 1.09457 cumulative IPC: 1.0899 (Simulation time: 1 hr 2 min 21 sec) 
Heartbeat CPU 0 instructions: 180000002 cycles: 134217359 heartbeat IPC: 1.09454 cumulative IPC: 1.0899 (Simulation time: 1 hr 2 min 21 sec) 
Heartbeat CPU 2 instructions: 180000002 cycles: 134218044 heartbeat IPC: 1.09447 cumulative IPC: 1.08989 (Simulation time: 1 hr 2 min 21 sec) 
Heartbeat CPU 1 instructions: 180000002 cycles: 134226541 heartbeat IPC: 1.09457 cumulative IPC: 1.08981 (Simulation time: 1 hr 2 min 21 sec) 
Heartbeat CPU 3 instructions: 190000001 cycles: 143334958 heartbeat IPC: 1.09673 cumulative IPC: 1.09039 (Simulation time: 1 hr 6 min 1 sec) 
Heartbeat CPU 0 instructions: 190000001 cycles: 143336062 heartbeat IPC: 1.09665 cumulative IPC: 1.09038 (Simulation time: 1 hr 6 min 1 sec) 
Heartbeat CPU 2 instructions: 190000001 cycles: 143336424 heartbeat IPC: 1.09669 cumulative IPC: 1.09037 (Simulation time: 1 hr 6 min 1 sec) 
Heartbeat CPU 1 instructions: 190000001 cycles: 143345445 heartbeat IPC: 1.09662 cumulative IPC: 1.0903 (Simulation time: 1 hr 6 min 2 sec) 
Heartbeat CPU 3 instructions: 200000000 cycles: 152380708 heartbeat IPC: 1.10549 cumulative IPC: 1.09138 (Simulation time: 1 hr 10 min 27 sec) 
Heartbeat CPU 0 instructions: 200000000 cycles: 152380759 heartbeat IPC: 1.10562 cumulative IPC: 1.09138 (Simulation time: 1 hr 10 min 27 sec) 
Heartbeat CPU 2 instructions: 200000000 cycles: 152383361 heartbeat IPC: 1.10535 cumulative IPC: 1.09136 (Simulation time: 1 hr 10 min 27 sec) 
Heartbeat CPU 1 instructions: 200000000 cycles: 152392282 heartbeat IPC: 1.10536 cumulative IPC: 1.09129 (Simulation time: 1 hr 10 min 27 sec) 
Heartbeat CPU 3 instructions: 210000001 cycles: 161411930 heartbeat IPC: 1.10727 cumulative IPC: 1.09236 (Simulation time: 1 hr 14 min 16 sec) 
Heartbeat CPU 0 instructions: 210000001 cycles: 161412032 heartbeat IPC: 1.10726 cumulative IPC: 1.09236 (Simulation time: 1 hr 14 min 16 sec) 
Heartbeat CPU 2 instructions: 210000001 cycles: 161415513 heartbeat IPC: 1.10716 cumulative IPC: 1.09233 (Simulation time: 1 hr 14 min 16 sec) 
Heartbeat CPU 1 instructions: 210000001 cycles: 161422688 heartbeat IPC: 1.10737 cumulative IPC: 1.09228 (Simulation time: 1 hr 14 min 16 sec) 
Heartbeat CPU 3 instructions: 220000000 cycles: 170426988 heartbeat IPC: 1.10926 cumulative IPC: 1.09334 (Simulation time: 1 hr 18 min 37 sec) 
Heartbeat CPU 0 instructions: 220000000 cycles: 170427105 heartbeat IPC: 1.10925 cumulative IPC: 1.09334 (Simulation time: 1 hr 18 min 37 sec) 
Heartbeat CPU 2 instructions: 220000000 cycles: 170431483 heartbeat IPC: 1.10914 cumulative IPC: 1.09331 (Simulation time: 1 hr 18 min 37 sec) 
Heartbeat CPU 1 instructions: 220000000 cycles: 170437536 heartbeat IPC: 1.10928 cumulative IPC: 1.09327 (Simulation time: 1 hr 18 min 37 sec) 
Heartbeat CPU 3 instructions: 230000003 cycles: 179367583 heartbeat IPC: 1.11849 cumulative IPC: 1.09471 (Simulation time: 1 hr 23 min 1 sec) 
Heartbeat CPU 0 instructions: 230000003 cycles: 179367634 heartbeat IPC: 1.1185 cumulative IPC: 1.09471 (Simulation time: 1 hr 23 min 1 sec) 
Heartbeat CPU 2 instructions: 230000003 cycles: 179373506 heartbeat IPC: 1.11832 cumulative IPC: 1.09467 (Simulation time: 1 hr 23 min 1 sec) 
Heartbeat CPU 1 instructions: 230000003 cycles: 179376812 heartbeat IPC: 1.11866 cumulative IPC: 1.09465 (Simulation time: 1 hr 23 min 1 sec) 
Heartbeat CPU 3 instructions: 240000000 cycles: 188306856 heartbeat IPC: 1.11866 cumulative IPC: 1.09594 (Simulation time: 1 hr 27 min 13 sec) 
Heartbeat CPU 0 instructions: 240000000 cycles: 188306907 heartbeat IPC: 1.11866 cumulative IPC: 1.09594 (Simulation time: 1 hr 27 min 13 sec) 
Heartbeat CPU 2 instructions: 240000000 cycles: 188313311 heartbeat IPC: 1.11859 cumulative IPC: 1.0959 (Simulation time: 1 hr 27 min 13 sec) 
Heartbeat CPU 1 instructions: 240000000 cycles: 188317761 heartbeat IPC: 1.11845 cumulative IPC: 1.09587 (Simulation time: 1 hr 27 min 13 sec) 
*** Reached end of trace for Core: 3 Repeating trace: ./traces/ligra/ligra_BFSCC.com-lj.ungraph.gcc_6.3.0_O3.drop_6750M.length_250M.champsimtrace.xz
*** Reached end of trace for Core: 0 Repeating trace: ./traces/ligra/ligra_BFSCC.com-lj.ungraph.gcc_6.3.0_O3.drop_6750M.length_250M.champsimtrace.xz
Heartbeat CPU 3 instructions: 250000001 cycles: 197241035 heartbeat IPC: 1.1193 cumulative IPC: 1.09709 (Simulation time: 1 hr 31 min 49 sec) 
Heartbeat CPU 0 instructions: 250000001 cycles: 197241137 heartbeat IPC: 1.11929 cumulative IPC: 1.09709 (Simulation time: 1 hr 31 min 49 sec) 
Finished CPU 3 instructions: 200000003 cycles: 182301382 cumulative IPC: 1.09708 (Simulation time: 1 hr 31 min 49 sec) 
Finished CPU 0 instructions: 200000003 cycles: 182301432 cumulative IPC: 1.09708 (Simulation time: 1 hr 31 min 49 sec) 
*** Reached end of trace for Core: 2 Repeating trace: ./traces/ligra/ligra_BFSCC.com-lj.ungraph.gcc_6.3.0_O3.drop_6750M.length_250M.champsimtrace.xz
Heartbeat CPU 2 instructions: 250000001 cycles: 197246967 heartbeat IPC: 1.11936 cumulative IPC: 1.09705 (Simulation time: 1 hr 31 min 49 sec) 
Finished CPU 2 instructions: 200000002 cycles: 182307290 cumulative IPC: 1.09705 (Simulation time: 1 hr 31 min 49 sec) 
*** Reached end of trace for Core: 1 Repeating trace: ./traces/ligra/ligra_BFSCC.com-lj.ungraph.gcc_6.3.0_O3.drop_6750M.length_250M.champsimtrace.xz
Heartbeat CPU 1 instructions: 250000001 cycles: 197251662 heartbeat IPC: 1.11933 cumulative IPC: 1.09702 (Simulation time: 1 hr 31 min 49 sec) 
Finished CPU 1 instructions: 200000001 cycles: 182311549 cumulative IPC: 1.09702 (Simulation time: 1 hr 31 min 49 sec) 

ChampSim completed all CPUs

Total Simulation Statistics (not including warmup)

CPU 0 cumulative IPC: 1.09707 instructions: 200007968 cycles: 182311549
ITLB TOTAL     ACCESS:   38032880  HIT:   38032880  MISS:          0  HIT %:        100  MISS %:          0   MPKI: 0
ITLB LOAD      ACCESS:          0  HIT:          0  MISS:          0  HIT %:       -nan  MISS %:       -nan   MPKI: 0
ITLB RFO       ACCESS:          0  HIT:          0  MISS:          0  HIT %:       -nan  MISS %:       -nan   MPKI: 0
ITLB PREFETCH  ACCESS:          0  HIT:          0  MISS:          0  HIT %:       -nan  MISS %:       -nan   MPKI: 0
ITLB WRITEBACK ACCESS:          0  HIT:          0  MISS:          0  HIT %:       -nan  MISS %:       -nan   MPKI: 0
DTLB TOTAL     ACCESS:   22953651  HIT:   22949793  MISS:       3858  HIT %:    99.9832  MISS %:  0.0168078   MPKI: 0.0192892
DTLB LOAD      ACCESS:          0  HIT:          0  MISS:          0  HIT %:       -nan  MISS %:       -nan   MPKI: 0
DTLB RFO       ACCESS:          0  HIT:          0  MISS:          0  HIT %:       -nan  MISS %:       -nan   MPKI: 0
DTLB PREFETCH  ACCESS:          0  HIT:          0  MISS:          0  HIT %:       -nan  MISS %:       -nan   MPKI: 0
DTLB WRITEBACK ACCESS:          0  HIT:          0  MISS:          0  HIT %:       -nan  MISS %:       -nan   MPKI: 0
STLB TOTAL     ACCESS:    3550060  HIT:    3546200  MISS:       3860  HIT %:    99.8913  MISS %:   0.108731   MPKI: 0.0192992
STLB LOAD      ACCESS:          0  HIT:          0  MISS:          0  HIT %:       -nan  MISS %:       -nan   MPKI: 0
STLB RFO       ACCESS:          0  HIT:          0  MISS:          0  HIT %:       -nan  MISS %:       -nan   MPKI: 0
STLB PREFETCH  ACCESS:          0  HIT:          0  MISS:          0  HIT %:       -nan  MISS %:       -nan   MPKI: 0
STLB WRITEBACK ACCESS:          0  HIT:          0  MISS:          0  HIT %:       -nan  MISS %:       -nan   MPKI: 0
L1D TOTAL     ACCESS:   45962723  HIT:   45715970  MISS:     246753  HIT %:    99.4631  MISS %:   0.536855   MPKI: 1.23372
L1D LOAD      ACCESS:   16874065  HIT:   16870942  MISS:       3123  HIT %:    99.9815  MISS %:  0.0185077   MPKI: 0.0156144
L1D RFO       ACCESS:    9019472  HIT:    8972473  MISS:      46999  HIT %:    99.4789  MISS %:   0.521084   MPKI: 0.234986
L1D PREFETCH  ACCESS:   20069186  HIT:   19872555  MISS:     196631  HIT %:    99.0202  MISS %:   0.979766   MPKI: 0.983116
L1D WRITEBACK ACCESS:          0  HIT:          0  MISS:          0  HIT %:       -nan  MISS %:       -nan   MPKI: 0
L1I TOTAL     ACCESS:   40272372  HIT:   40272372  MISS:          0  HIT %:        100  MISS %:          0   MPKI: 0
L1I LOAD      ACCESS:   40272372  HIT:   40272372  MISS:          0  HIT %:        100  MISS %:          0   MPKI: 0
L1I RFO       ACCESS:          0  HIT:          0  MISS:          0  HIT %:       -nan  MISS %:       -nan   MPKI: 0
L1I PREFETCH  ACCESS:          0  HIT:          0  MISS:          0  HIT %:       -nan  MISS %:       -nan   MPKI: 0
L1I WRITEBACK ACCESS:          0  HIT:          0  MISS:          0  HIT %:       -nan  MISS %:       -nan   MPKI: 0
L2C TOTAL     ACCESS:    2709866  HIT:    2453657  MISS:     256209  HIT %:    90.5453  MISS %:    9.45467   MPKI: 1.28099
L2C LOAD      ACCESS:       2586  HIT:          0  MISS:       2586  HIT %:          0  MISS %:        100   MPKI: 0.0129295
L2C RFO       ACCESS:      46999  HIT:          0  MISS:      46999  HIT %:          0  MISS %:        100   MPKI: 0.234986
L2C PREFETCH  ACCESS:     945430  HIT:     748228  MISS:     197202  HIT %:    79.1416  MISS %:    20.8584   MPKI: 0.985971
L2C WRITEBACK ACCESS:      46991  HIT:      38064  MISS:       8927  HIT %:    81.0027  MISS %:    18.9973   MPKI: 0.0446332
PSCL5 TOTAL     ACCESS:    1667860  HIT:    1667860  MISS:          0  HIT %:        100  MISS %:          0   MPKI: 0
PSCL5 LOAD      ACCESS:          0  HIT:          0  MISS:          0  HIT %:       -nan  MISS %:       -nan   MPKI: 0
PSCL5 RFO       ACCESS:          0  HIT:          0  MISS:          0  HIT %:       -nan  MISS %:       -nan   MPKI: 0
PSCL5 PREFETCH  ACCESS:          0  HIT:          0  MISS:          0  HIT %:       -nan  MISS %:       -nan   MPKI: 0
PSCL5 WRITEBACK ACCESS:          0  HIT:          0  MISS:          0  HIT %:       -nan  MISS %:       -nan   MPKI: 0
PSCL4 TOTAL     ACCESS:    1667860  HIT:    1667860  MISS:          0  HIT %:        100  MISS %:          0   MPKI: 0
PSCL4 LOAD      ACCESS:          0  HIT:          0  MISS:          0  HIT %:       -nan  MISS %:       -nan   MPKI: 0
PSCL4 RFO       ACCESS:          0  HIT:          0  MISS:          0  HIT %:       -nan  MISS %:       -nan   MPKI: 0
PSCL4 PREFETCH  ACCESS:          0  HIT:          0  MISS:          0  HIT %:       -nan  MISS %:       -nan   MPKI: 0
PSCL4 WRITEBACK ACCESS:          0  HIT:          0  MISS:          0  HIT %:       -nan  MISS %:       -nan   MPKI: 0
PSCL3 TOTAL     ACCESS:    1667860  HIT:    1667860  MISS:          0  HIT %:        100  MISS %:          0   MPKI: 0
PSCL3 LOAD      ACCESS:          0  HIT:          0  MISS:          0  HIT %:       -nan  MISS %:       -nan   MPKI: 0
PSCL3 RFO       ACCESS:          0  HIT:          0  MISS:          0  HIT %:       -nan  MISS %:       -nan   MPKI: 0
PSCL3 PREFETCH  ACCESS:          0  HIT:          0  MISS:          0  HIT %:       -nan  MISS %:       -nan   MPKI: 0
PSCL3 WRITEBACK ACCESS:          0  HIT:          0  MISS:          0  HIT %:       -nan  MISS %:       -nan   MPKI: 0
PSCL2 TOTAL     ACCESS:    1663566  HIT:    1663559  MISS:          7  HIT %:    99.9996  MISS %: 0.000420783   MPKI: 3.49986e-05
PSCL2 LOAD      ACCESS:          0  HIT:          0  MISS:          0  HIT %:       -nan  MISS %:       -nan   MPKI: 0
PSCL2 RFO       ACCESS:          0  HIT:          0  MISS:          0  HIT %:       -nan  MISS %:       -nan   MPKI: 0
PSCL2 PREFETCH  ACCESS:          0  HIT:          0  MISS:          0  HIT %:       -nan  MISS %:       -nan   MPKI: 0
PSCL2 WRITEBACK ACCESS:          0  HIT:          0  MISS:          0  HIT %:       -nan  MISS %:       -nan   MPKI: 0
LLC TOTAL     ACCESS:     294758  HIT:      43107  MISS:     251651  HIT %:    14.6245  MISS %:    85.3755   MPKI: 1.2582
LLC LOAD      ACCESS:       2586  HIT:          0  MISS:       2586  HIT %:          0  MISS %:        100   MPKI: 0.0129295
LLC RFO       ACCESS:      46999  HIT:          0  MISS:      46999  HIT %:          0  MISS %:        100   MPKI: 0.234986
LLC PREFETCH  ACCESS:     197202  HIT:          1  MISS:     197201  HIT %: 0.000507094  MISS %:    99.9995   MPKI: 0.985966
LLC WRITEBACK ACCESS:      47476  HIT:      43103  MISS:       4373  HIT %:     90.789  MISS %:    9.21097   MPKI: 0.0218641

RAW hits: 3027935
Loads Generated: 27070481
Loads sent to L1D: 24042546
Stores Generated: 9023485
Stores sent to L1D: 9023496

CPU 1 cumulative IPC: 1.09702 instructions: 200000001 cycles: 182311549
ITLB TOTAL     ACCESS:   38031453  HIT:   38031453  MISS:          0  HIT %:        100  MISS %:          0   MPKI: 0
ITLB LOAD      ACCESS:          0  HIT:          0  MISS:          0  HIT %:       -nan  MISS %:       -nan   MPKI: 0
ITLB RFO       ACCESS:          0  HIT:          0  MISS:          0  HIT %:       -nan  MISS %:       -nan   MPKI: 0
ITLB PREFETCH  ACCESS:          0  HIT:          0  MISS:          0  HIT %:       -nan  MISS %:       -nan   MPKI: 0
ITLB WRITEBACK ACCESS:          0  HIT:          0  MISS:          0  HIT %:       -nan  MISS %:       -nan   MPKI: 0
DTLB TOTAL     ACCESS:   22952611  HIT:   22948756  MISS:       3855  HIT %:    99.9832  MISS %:  0.0167955   MPKI: 0.019275
DTLB LOAD      ACCESS:          0  HIT:          0  MISS:          0  HIT %:       -nan  MISS %:       -nan   MPKI: 0
DTLB RFO       ACCESS:          0  HIT:          0  MISS:          0  HIT %:       -nan  MISS %:       -nan   MPKI: 0
DTLB PREFETCH  ACCESS:          0  HIT:          0  MISS:          0  HIT %:       -nan  MISS %:       -nan   MPKI: 0
DTLB WRITEBACK ACCESS:          0  HIT:          0  MISS:          0  HIT %:       -nan  MISS %:       -nan   MPKI: 0
STLB TOTAL     ACCESS:    3549135  HIT:    3545280  MISS:       3855  HIT %:    99.8914  MISS %:   0.108618   MPKI: 0.019275
STLB LOAD      ACCESS:          0  HIT:          0  MISS:          0  HIT %:       -nan  MISS %:       -nan   MPKI: 0
STLB RFO       ACCESS:          0  HIT:          0  MISS:          0  HIT %:       -nan  MISS %:       -nan   MPKI: 0
STLB PREFETCH  ACCESS:          0  HIT:          0  MISS:          0  HIT %:       -nan  MISS %:       -nan   MPKI: 0
STLB WRITEBACK ACCESS:          0  HIT:          0  MISS:          0  HIT %:       -nan  MISS %:       -nan   MPKI: 0
L1D TOTAL     ACCESS:   45948650  HIT:   45701936  MISS:     246714  HIT %:    99.4631  MISS %:   0.536934   MPKI: 1.23357
L1D LOAD      ACCESS:   16873278  HIT:   16870157  MISS:       3121  HIT %:    99.9815  MISS %:  0.0184967   MPKI: 0.015605
L1D RFO       ACCESS:    9018160  HIT:    8971164  MISS:      46996  HIT %:    99.4789  MISS %:   0.521126   MPKI: 0.23498
L1D PREFETCH  ACCESS:   20057212  HIT:   19860615  MISS:     196597  HIT %:    99.0198  MISS %:   0.980181   MPKI: 0.982985
L1D WRITEBACK ACCESS:          0  HIT:          0  MISS:          0  HIT %:       -nan  MISS %:       -nan   MPKI: 0
L1I TOTAL     ACCESS:   40270860  HIT:   40270860  MISS:          0  HIT %:        100  MISS %:          0   MPKI: 0
L1I LOAD      ACCESS:   40270860  HIT:   40270860  MISS:          0  HIT %:        100  MISS %:          0   MPKI: 0
L1I RFO       ACCESS:          0  HIT:          0  MISS:          0  HIT %:       -nan  MISS %:       -nan   MPKI: 0
L1I PREFETCH  ACCESS:          0  HIT:          0  MISS:          0  HIT %:       -nan  MISS %:       -nan   MPKI: 0
L1I WRITEBACK ACCESS:          0  HIT:          0  MISS:          0  HIT %:       -nan  MISS %:       -nan   MPKI: 0
L2C TOTAL     ACCESS:    2734521  HIT:    2478608  MISS:     255913  HIT %:    90.6414  MISS %:     9.3586   MPKI: 1.27956
L2C LOAD      ACCESS:       2584  HIT:          0  MISS:       2584  HIT %:          0  MISS %:        100   MPKI: 0.01292
L2C RFO       ACCESS:      46996  HIT:          0  MISS:      46996  HIT %:          0  MISS %:        100   MPKI: 0.23498
L2C PREFETCH  ACCESS:     952294  HIT:     755159  MISS:     197135  HIT %:    79.2989  MISS %:    20.7011   MPKI: 0.985675
L2C WRITEBACK ACCESS:      46986  HIT:      38276  MISS:       8710  HIT %:    81.4626  MISS %:    18.5374   MPKI: 0.04355
PSCL5 TOTAL     ACCESS:    1685662  HIT:    1685662  MISS:          0  HIT %:        100  MISS %:          0   MPKI: 0
PSCL5 LOAD      ACCESS:          0  HIT:          0  MISS:          0  HIT %:       -nan  MISS %:       -nan   MPKI: 0
PSCL5 RFO       ACCESS:          0  HIT:          0  MISS:          0  HIT %:       -nan  MISS %:       -nan   MPKI: 0
PSCL5 PREFETCH  ACCESS:          0  HIT:          0  MISS:          0  HIT %:       -nan  MISS %:       -nan   MPKI: 0
PSCL5 WRITEBACK ACCESS:          0  HIT:          0  MISS:          0  HIT %:       -nan  MISS %:       -nan   MPKI: 0
PSCL4 TOTAL     ACCESS:    1685662  HIT:    1685662  MISS:          0  HIT %:        100  MISS %:          0   MPKI: 0
PSCL4 LOAD      ACCESS:          0  HIT:          0  MISS:          0  HIT %:       -nan  MISS %:       -nan   MPKI: 0
PSCL4 RFO       ACCESS:          0  HIT:          0  MISS:          0  HIT %:       -nan  MISS %:       -nan   MPKI: 0
PSCL4 PREFETCH  ACCESS:          0  HIT:          0  MISS:          0  HIT %:       -nan  MISS %:       -nan   MPKI: 0
PSCL4 WRITEBACK ACCESS:          0  HIT:          0  MISS:          0  HIT %:       -nan  MISS %:       -nan   MPKI: 0
PSCL3 TOTAL     ACCESS:    1685662  HIT:    1685662  MISS:          0  HIT %:        100  MISS %:          0   MPKI: 0
PSCL3 LOAD      ACCESS:          0  HIT:          0  MISS:          0  HIT %:       -nan  MISS %:       -nan   MPKI: 0
PSCL3 RFO       ACCESS:          0  HIT:          0  MISS:          0  HIT %:       -nan  MISS %:       -nan   MPKI: 0
PSCL3 PREFETCH  ACCESS:          0  HIT:          0  MISS:          0  HIT %:       -nan  MISS %:       -nan   MPKI: 0
PSCL3 WRITEBACK ACCESS:          0  HIT:          0  MISS:          0  HIT %:       -nan  MISS %:       -nan   MPKI: 0
PSCL2 TOTAL     ACCESS:    1681436  HIT:    1681429  MISS:          7  HIT %:    99.9996  MISS %: 0.000416311   MPKI: 3.5e-05
PSCL2 LOAD      ACCESS:          0  HIT:          0  MISS:          0  HIT %:       -nan  MISS %:       -nan   MPKI: 0
PSCL2 RFO       ACCESS:          0  HIT:          0  MISS:          0  HIT %:       -nan  MISS %:       -nan   MPKI: 0
PSCL2 PREFETCH  ACCESS:          0  HIT:          0  MISS:          0  HIT %:       -nan  MISS %:       -nan   MPKI: 0
PSCL2 WRITEBACK ACCESS:          0  HIT:          0  MISS:          0  HIT %:       -nan  MISS %:       -nan   MPKI: 0
LLC TOTAL     ACCESS:     294651  HIT:      41949  MISS:     252702  HIT %:    14.2368  MISS %:    85.7632   MPKI: 1.26351
LLC LOAD      ACCESS:       2584  HIT:          0  MISS:       2584  HIT %:          0  MISS %:        100   MPKI: 0.01292
LLC RFO       ACCESS:      46996  HIT:          0  MISS:      46996  HIT %:          0  MISS %:        100   MPKI: 0.23498
LLC PREFETCH  ACCESS:     197135  HIT:          0  MISS:     197135  HIT %:          0  MISS %:        100   MPKI: 0.985675
LLC WRITEBACK ACCESS:      47448  HIT:      41949  MISS:       5499  HIT %:    88.4105  MISS %:    11.5895   MPKI: 0.027495

RAW hits: 3027870
Loads Generated: 27069403
Loads sent to L1D: 24041533
Stores Generated: 9023136
Stores sent to L1D: 9023136

CPU 2 cumulative IPC: 1.09704 instructions: 200002846 cycles: 182311550
ITLB TOTAL     ACCESS:   38031987  HIT:   38031987  MISS:          0  HIT %:        100  MISS %:          0   MPKI: 0
ITLB LOAD      ACCESS:          0  HIT:          0  MISS:          0  HIT %:       -nan  MISS %:       -nan   MPKI: 0
ITLB RFO       ACCESS:          0  HIT:          0  MISS:          0  HIT %:       -nan  MISS %:       -nan   MPKI: 0
ITLB PREFETCH  ACCESS:          0  HIT:          0  MISS:          0  HIT %:       -nan  MISS %:       -nan   MPKI: 0
ITLB WRITEBACK ACCESS:          0  HIT:          0  MISS:          0  HIT %:       -nan  MISS %:       -nan   MPKI: 0
DTLB TOTAL     ACCESS:   22952988  HIT:   22949130  MISS:       3858  HIT %:    99.9832  MISS %:  0.0168083   MPKI: 0.0192897
DTLB LOAD      ACCESS:          0  HIT:          0  MISS:          0  HIT %:       -nan  MISS %:       -nan   MPKI: 0
DTLB RFO       ACCESS:          0  HIT:          0  MISS:          0  HIT %:       -nan  MISS %:       -nan   MPKI: 0
DTLB PREFETCH  ACCESS:          0  HIT:          0  MISS:          0  HIT %:       -nan  MISS %:       -nan   MPKI: 0
DTLB WRITEBACK ACCESS:          0  HIT:          0  MISS:          0  HIT %:       -nan  MISS %:       -nan   MPKI: 0
STLB TOTAL     ACCESS:    3549773  HIT:    3545913  MISS:       3860  HIT %:    99.8913  MISS %:   0.108739   MPKI: 0.0192997
STLB LOAD      ACCESS:          0  HIT:          0  MISS:          0  HIT %:       -nan  MISS %:       -nan   MPKI: 0
STLB RFO       ACCESS:          0  HIT:          0  MISS:          0  HIT %:       -nan  MISS %:       -nan   MPKI: 0
STLB PREFETCH  ACCESS:          0  HIT:          0  MISS:          0  HIT %:       -nan  MISS %:       -nan   MPKI: 0
STLB WRITEBACK ACCESS:          0  HIT:          0  MISS:          0  HIT %:       -nan  MISS %:       -nan   MPKI: 0
L1D TOTAL     ACCESS:   45949468  HIT:   45702727  MISS:     246741  HIT %:     99.463  MISS %:   0.536983   MPKI: 1.23369
L1D LOAD      ACCESS:   16873591  HIT:   16870468  MISS:       3123  HIT %:    99.9815  MISS %:  0.0185082   MPKI: 0.0156148
L1D RFO       ACCESS:    9017783  HIT:    8970785  MISS:      46998  HIT %:    99.4788  MISS %:    0.52117   MPKI: 0.234987
L1D PREFETCH  ACCESS:   20058094  HIT:   19861474  MISS:     196620  HIT %:    99.0197  MISS %:   0.980253   MPKI: 0.983086
L1D WRITEBACK ACCESS:          0  HIT:          0  MISS:          0  HIT %:       -nan  MISS %:       -nan   MPKI: 0
L1I TOTAL     ACCESS:   40271421  HIT:   40271421  MISS:          0  HIT %:        100  MISS %:          0   MPKI: 0
L1I LOAD      ACCESS:   40271421  HIT:   40271421  MISS:          0  HIT %:        100  MISS %:          0   MPKI: 0
L1I RFO       ACCESS:          0  HIT:          0  MISS:          0  HIT %:       -nan  MISS %:       -nan   MPKI: 0
L1I PREFETCH  ACCESS:          0  HIT:          0  MISS:          0  HIT %:       -nan  MISS %:       -nan   MPKI: 0
L1I WRITEBACK ACCESS:          0  HIT:          0  MISS:          0  HIT %:       -nan  MISS %:       -nan   MPKI: 0
L2C TOTAL     ACCESS:    2720069  HIT:    2463949  MISS:     256120  HIT %:    90.5841  MISS %:    9.41594   MPKI: 1.28058
L2C LOAD      ACCESS:       2586  HIT:          0  MISS:       2586  HIT %:          0  MISS %:        100   MPKI: 0.0129298
L2C RFO       ACCESS:      46998  HIT:          0  MISS:      46998  HIT %:          0  MISS %:        100   MPKI: 0.234987
L2C PREFETCH  ACCESS:     952640  HIT:     755472  MISS:     197168  HIT %:     79.303  MISS %:     20.697   MPKI: 0.985826
L2C WRITEBACK ACCESS:      46988  HIT:      38116  MISS:       8872  HIT %:    81.1186  MISS %:    18.8814   MPKI: 0.0443594
PSCL5 TOTAL     ACCESS:    1670857  HIT:    1670857  MISS:          0  HIT %:        100  MISS %:          0   MPKI: 0
PSCL5 LOAD      ACCESS:          0  HIT:          0  MISS:          0  HIT %:       -nan  MISS %:       -nan   MPKI: 0
PSCL5 RFO       ACCESS:          0  HIT:          0  MISS:          0  HIT %:       -nan  MISS %:       -nan   MPKI: 0
PSCL5 PREFETCH  ACCESS:          0  HIT:          0  MISS:          0  HIT %:       -nan  MISS %:       -nan   MPKI: 0
PSCL5 WRITEBACK ACCESS:          0  HIT:          0  MISS:          0  HIT %:       -nan  MISS %:       -nan   MPKI: 0
PSCL4 TOTAL     ACCESS:    1670857  HIT:    1670857  MISS:          0  HIT %:        100  MISS %:          0   MPKI: 0
PSCL4 LOAD      ACCESS:          0  HIT:          0  MISS:          0  HIT %:       -nan  MISS %:       -nan   MPKI: 0
PSCL4 RFO       ACCESS:          0  HIT:          0  MISS:          0  HIT %:       -nan  MISS %:       -nan   MPKI: 0
PSCL4 PREFETCH  ACCESS:          0  HIT:          0  MISS:          0  HIT %:       -nan  MISS %:       -nan   MPKI: 0
PSCL4 WRITEBACK ACCESS:          0  HIT:          0  MISS:          0  HIT %:       -nan  MISS %:       -nan   MPKI: 0
PSCL3 TOTAL     ACCESS:    1670857  HIT:    1670857  MISS:          0  HIT %:        100  MISS %:          0   MPKI: 0
PSCL3 LOAD      ACCESS:          0  HIT:          0  MISS:          0  HIT %:       -nan  MISS %:       -nan   MPKI: 0
PSCL3 RFO       ACCESS:          0  HIT:          0  MISS:          0  HIT %:       -nan  MISS %:       -nan   MPKI: 0
PSCL3 PREFETCH  ACCESS:          0  HIT:          0  MISS:          0  HIT %:       -nan  MISS %:       -nan   MPKI: 0
PSCL3 WRITEBACK ACCESS:          0  HIT:          0  MISS:          0  HIT %:       -nan  MISS %:       -nan   MPKI: 0
PSCL2 TOTAL     ACCESS:    1666567  HIT:    1666560  MISS:          7  HIT %:    99.9996  MISS %: 0.000420025   MPKI: 3.49995e-05
PSCL2 LOAD      ACCESS:          0  HIT:          0  MISS:          0  HIT %:       -nan  MISS %:       -nan   MPKI: 0
PSCL2 RFO       ACCESS:          0  HIT:          0  MISS:          0  HIT %:       -nan  MISS %:       -nan   MPKI: 0
PSCL2 PREFETCH  ACCESS:          0  HIT:          0  MISS:          0  HIT %:       -nan  MISS %:       -nan   MPKI: 0
PSCL2 WRITEBACK ACCESS:          0  HIT:          0  MISS:          0  HIT %:       -nan  MISS %:       -nan   MPKI: 0
LLC TOTAL     ACCESS:     294891  HIT:      42621  MISS:     252270  HIT %:    14.4531  MISS %:    85.5469   MPKI: 1.26133
LLC LOAD      ACCESS:       2586  HIT:          0  MISS:       2586  HIT %:          0  MISS %:        100   MPKI: 0.0129298
LLC RFO       ACCESS:      46998  HIT:          0  MISS:      46998  HIT %:          0  MISS %:        100   MPKI: 0.234987
LLC PREFETCH  ACCESS:     197168  HIT:          0  MISS:     197168  HIT %:          0  MISS %:        100   MPKI: 0.985826
LLC WRITEBACK ACCESS:      47643  HIT:      42617  MISS:       5026  HIT %:    89.4507  MISS %:    10.5493   MPKI: 0.0251296

RAW hits: 3027893
Loads Generated: 27069787
Loads sent to L1D: 24041894
Stores Generated: 9023261
Stores sent to L1D: 9023258

CPU 3 cumulative IPC: 1.09707 instructions: 200008067 cycles: 182311550
ITLB TOTAL     ACCESS:   38032848  HIT:   38032848  MISS:          0  HIT %:        100  MISS %:          0   MPKI: 0
ITLB LOAD      ACCESS:          0  HIT:          0  MISS:          0  HIT %:       -nan  MISS %:       -nan   MPKI: 0
ITLB RFO       ACCESS:          0  HIT:          0  MISS:          0  HIT %:       -nan  MISS %:       -nan   MPKI: 0
ITLB PREFETCH  ACCESS:          0  HIT:          0  MISS:          0  HIT %:       -nan  MISS %:       -nan   MPKI: 0
ITLB WRITEBACK ACCESS:          0  HIT:          0  MISS:          0  HIT %:       -nan  MISS %:       -nan   MPKI: 0
DTLB TOTAL     ACCESS:   22953659  HIT:   22949801  MISS:       3858  HIT %:    99.9832  MISS %:  0.0168078   MPKI: 0.0192892
DTLB LOAD      ACCESS:          0  HIT:          0  MISS:          0  HIT %:       -nan  MISS %:       -nan   MPKI: 0
DTLB RFO       ACCESS:          0  HIT:          0  MISS:          0  HIT %:       -nan  MISS %:       -nan   MPKI: 0
DTLB PREFETCH  ACCESS:          0  HIT:          0  MISS:          0  HIT %:       -nan  MISS %:       -nan   MPKI: 0
DTLB WRITEBACK ACCESS:          0  HIT:          0  MISS:          0  HIT %:       -nan  MISS %:       -nan   MPKI: 0
STLB TOTAL     ACCESS:    3549957  HIT:    3546097  MISS:       3860  HIT %:    99.8913  MISS %:   0.108734   MPKI: 0.0192992
STLB LOAD      ACCESS:          0  HIT:          0  MISS:          0  HIT %:       -nan  MISS %:       -nan   MPKI: 0
STLB RFO       ACCESS:          0  HIT:          0  MISS:          0  HIT %:       -nan  MISS %:       -nan   MPKI: 0
STLB PREFETCH  ACCESS:          0  HIT:          0  MISS:          0  HIT %:       -nan  MISS %:       -nan   MPKI: 0
STLB WRITEBACK ACCESS:          0  HIT:          0  MISS:          0  HIT %:       -nan  MISS %:       -nan   MPKI: 0
L1D TOTAL     ACCESS:   45955985  HIT:   45709232  MISS:     246753  HIT %:    99.4631  MISS %:   0.536933   MPKI: 1.23372
L1D LOAD      ACCESS:   16874084  HIT:   16870961  MISS:       3123  HIT %:    99.9815  MISS %:  0.0185077   MPKI: 0.0156144
L1D RFO       ACCESS:    9018166  HIT:    8971167  MISS:      46999  HIT %:    99.4788  MISS %:   0.521159   MPKI: 0.234986
L1D PREFETCH  ACCESS:   20063735  HIT:   19867104  MISS:     196631  HIT %:      99.02  MISS %:   0.980032   MPKI: 0.983115
L1D WRITEBACK ACCESS:          0  HIT:          0  MISS:          0  HIT %:       -nan  MISS %:       -nan   MPKI: 0
L1I TOTAL     ACCESS:   40272346  HIT:   40272346  MISS:          0  HIT %:        100  MISS %:          0   MPKI: 0
L1I LOAD      ACCESS:   40272346  HIT:   40272346  MISS:          0  HIT %:        100  MISS %:          0   MPKI: 0
L1I RFO       ACCESS:          0  HIT:          0  MISS:          0  HIT %:       -nan  MISS %:       -nan   MPKI: 0
L1I PREFETCH  ACCESS:          0  HIT:          0  MISS:          0  HIT %:       -nan  MISS %:       -nan   MPKI: 0
L1I WRITEBACK ACCESS:          0  HIT:          0  MISS:          0  HIT %:       -nan  MISS %:       -nan   MPKI: 0
L2C TOTAL     ACCESS:    2716291  HIT:    2459841  MISS:     256450  HIT %:    90.5588  MISS %:    9.44118   MPKI: 1.2822
L2C LOAD      ACCESS:       2586  HIT:          0  MISS:       2586  HIT %:          0  MISS %:        100   MPKI: 0.0129295
L2C RFO       ACCESS:      46999  HIT:          0  MISS:      46999  HIT %:          0  MISS %:        100   MPKI: 0.234986
L2C PREFETCH  ACCESS:     947372  HIT:     750181  MISS:     197191  HIT %:    79.1855  MISS %:    20.8145   MPKI: 0.985915
L2C WRITEBACK ACCESS:      46991  HIT:      37809  MISS:       9182  HIT %:    80.4601  MISS %:    19.5399   MPKI: 0.0459081
PSCL5 TOTAL     ACCESS:    1672343  HIT:    1672343  MISS:          0  HIT %:        100  MISS %:          0   MPKI: 0
PSCL5 LOAD      ACCESS:          0  HIT:          0  MISS:          0  HIT %:       -nan  MISS %:       -nan   MPKI: 0
PSCL5 RFO       ACCESS:          0  HIT:          0  MISS:          0  HIT %:       -nan  MISS %:       -nan   MPKI: 0
PSCL5 PREFETCH  ACCESS:          0  HIT:          0  MISS:          0  HIT %:       -nan  MISS %:       -nan   MPKI: 0
PSCL5 WRITEBACK ACCESS:          0  HIT:          0  MISS:          0  HIT %:       -nan  MISS %:       -nan   MPKI: 0
PSCL4 TOTAL     ACCESS:    1672343  HIT:    1672343  MISS:          0  HIT %:        100  MISS %:          0   MPKI: 0
PSCL4 LOAD      ACCESS:          0  HIT:          0  MISS:          0  HIT %:       -nan  MISS %:       -nan   MPKI: 0
PSCL4 RFO       ACCESS:          0  HIT:          0  MISS:          0  HIT %:       -nan  MISS %:       -nan   MPKI: 0
PSCL4 PREFETCH  ACCESS:          0  HIT:          0  MISS:          0  HIT %:       -nan  MISS %:       -nan   MPKI: 0
PSCL4 WRITEBACK ACCESS:          0  HIT:          0  MISS:          0  HIT %:       -nan  MISS %:       -nan   MPKI: 0
PSCL3 TOTAL     ACCESS:    1672343  HIT:    1672343  MISS:          0  HIT %:        100  MISS %:          0   MPKI: 0
PSCL3 LOAD      ACCESS:          0  HIT:          0  MISS:          0  HIT %:       -nan  MISS %:       -nan   MPKI: 0
PSCL3 RFO       ACCESS:          0  HIT:          0  MISS:          0  HIT %:       -nan  MISS %:       -nan   MPKI: 0
PSCL3 PREFETCH  ACCESS:          0  HIT:          0  MISS:          0  HIT %:       -nan  MISS %:       -nan   MPKI: 0
PSCL3 WRITEBACK ACCESS:          0  HIT:          0  MISS:          0  HIT %:       -nan  MISS %:       -nan   MPKI: 0
PSCL2 TOTAL     ACCESS:    1668370  HIT:    1668363  MISS:          7  HIT %:    99.9996  MISS %: 0.000419571   MPKI: 3.49986e-05
PSCL2 LOAD      ACCESS:          0  HIT:          0  MISS:          0  HIT %:       -nan  MISS %:       -nan   MPKI: 0
PSCL2 RFO       ACCESS:          0  HIT:          0  MISS:          0  HIT %:       -nan  MISS %:       -nan   MPKI: 0
PSCL2 PREFETCH  ACCESS:          0  HIT:          0  MISS:          0  HIT %:       -nan  MISS %:       -nan   MPKI: 0
PSCL2 WRITEBACK ACCESS:          0  HIT:          0  MISS:          0  HIT %:       -nan  MISS %:       -nan   MPKI: 0
LLC TOTAL     ACCESS:     294282  HIT:      43122  MISS:     251160  HIT %:    14.6533  MISS %:    85.3467   MPKI: 1.25575
LLC LOAD      ACCESS:       2586  HIT:          0  MISS:       2586  HIT %:          0  MISS %:        100   MPKI: 0.0129295
LLC RFO       ACCESS:      46999  HIT:          0  MISS:      46999  HIT %:          0  MISS %:        100   MPKI: 0.234986
LLC PREFETCH  ACCESS:     197191  HIT:          0  MISS:     197191  HIT %:          0  MISS %:        100   MPKI: 0.985915
LLC WRITEBACK ACCESS:      47014  HIT:      43122  MISS:       3892  HIT %:    91.7216  MISS %:    8.27839   MPKI: 0.0194592

RAW hits: 3027927
Loads Generated: 27070496
Loads sent to L1D: 24042568
Stores Generated: 9023487
Stores sent to L1D: 9023497

Region of Interest Statistics

CPU 0 cumulative IPC: 1.09708 instructions: 200000003 cycles: 182301432
ITLB TOTAL     ACCESS:   38031461  HIT:   38031461  MISS:          0  HIT %:        100  MISS %:          0   MPKI: 0
ITLB LOAD TRANSLATION ACCESS:   38031461  HIT:   38031461  MISS:          0  HIT %:        100  MISS %:          0   MPKI: 0
ITLB PREFETCH  REQUESTED:          0  ISSUED:          0  USEFUL:          0  USELESS:          0
ITLB USEFUL LOAD PREFETCHES:          0 PREFETCH ISSUED TO LOWER LEVEL:          0  ACCURACY: -nan
ITLB TIMELY PREFETCHES:          0 LATE PREFETCHES: 0 DROPPED PREFETCHES: 0
ITLB PREFETCHES SAME FILL-ORIGIN LEVEL: 0 DIFFERENT FILL-ORIGIN LEVEL: 0
ITLB AVERAGE MISS LATENCY: -nan cycles
ITLB RQ	ACCESS:   40272372	FORWARD:          0	MERGED:    2239492	TO_CACHE:   38032880

DTLB TOTAL     ACCESS:   22952624  HIT:   22948768  MISS:       3856  HIT %:    99.9832  MISS %:  0.0167998   MPKI: 0.01928
DTLB LOAD TRANSLATION ACCESS:   22952624  HIT:   22948768  MISS:       3856  HIT %:    99.9832  MISS %:  0.0167998   MPKI: 0.01928
DTLB PREFETCH  REQUESTED:          0  ISSUED:          0  USEFUL:          0  USELESS:          0
DTLB USEFUL LOAD PREFETCHES:          0 PREFETCH ISSUED TO LOWER LEVEL:          0  ACCURACY: -nan
DTLB TIMELY PREFETCHES:          0 LATE PREFETCHES: 0 DROPPED PREFETCHES: 0
DTLB PREFETCHES SAME FILL-ORIGIN LEVEL: 0 DIFFERENT FILL-ORIGIN LEVEL: 0
DTLB AVERAGE MISS LATENCY: 126.378 cycles
DTLB RQ	ACCESS:   25899576	FORWARD:          0	MERGED:    2945889	TO_CACHE:   22953687

STLB TOTAL     ACCESS:    3549800  HIT:    3545944  MISS:       3856  HIT %:    99.8914  MISS %:   0.108626   MPKI: 0.01928
STLB LOAD TRANSLATION ACCESS:       3856  HIT:          0  MISS:       3856  HIT %:          0  MISS %:        100   MPKI: 0.01928
STLB TRANSLATION FROM L1D PREFETCHER ACCESS:    3545944  HIT:    3545944  MISS:          0  HIT %:        100  MISS %:          0   MPKI: 0
STLB PREFETCH  REQUESTED:          0  ISSUED:          0  USEFUL:          2  USELESS:          0
STLB USEFUL LOAD PREFETCHES:          2 PREFETCH ISSUED TO LOWER LEVEL:          0  ACCURACY: inf
STLB TIMELY PREFETCHES:          2 LATE PREFETCHES: 499 DROPPED PREFETCHES: 1663501
STLB PREFETCHES SAME FILL-ORIGIN LEVEL: 0 DIFFERENT FILL-ORIGIN LEVEL: 0
STLB AVERAGE MISS LATENCY: 118.853 cycles
STLB RQ	ACCESS:   25153828	FORWARD:          0	MERGED:   19937320	TO_CACHE:    5216508

STLB Hit, L1D data hit: 0
STLB Hit, L2C data hit: 0
STLB Hit, LLC data hit: 0
STLB Hit, LLC data miss: 0
STLB STLB hints to L2: 0
L1D TOTAL     ACCESS:   45960563  HIT:   45713843  MISS:     246720  HIT %:    99.4632  MISS %:   0.536808   MPKI: 1.2336
L1D LOAD      ACCESS:   16873281  HIT:   16870159  MISS:       3122  HIT %:    99.9815  MISS %:  0.0185026   MPKI: 0.01561
L1D RFO       ACCESS:    9019113  HIT:    8972117  MISS:      46996  HIT %:    99.4789  MISS %:   0.521071   MPKI: 0.23498
L1D PREFETCH  ACCESS:   20068169  HIT:   19871567  MISS:     196602  HIT %:    99.0203  MISS %:   0.979671   MPKI: 0.98301
L1D PREFETCH  REQUESTED:   55366096  ISSUED:   55359790  USEFUL:     196617  USELESS:          0
L1D USEFUL LOAD PREFETCHES:     196617 PREFETCH ISSUED TO LOWER LEVEL:     950969  ACCURACY: 20.6754
L1D TIMELY PREFETCHES:     196617 LATE PREFETCHES: 537 DROPPED PREFETCHES: 4307188
L1D PREFETCHES SAME FILL-ORIGIN LEVEL: 197168 DIFFERENT FILL-ORIGIN LEVEL: 753801
L1D AVERAGE MISS LATENCY: 108.559 cycles
L1D RQ	ACCESS:   24042546	FORWARD:          0	MERGED:    7153768	TO_CACHE:   16876080
L1D WQ	ACCESS:    9023496	FORWARD:      12698	MERGED:          0	TO_CACHE:    9023496
L1D PQ	ACCESS:   30209820	FORWARD:          0	MERGED:    5059850	TO_CACHE:   25149970

L1D UNIQUE REGIONS ACCESSED: 0
L1D REGIONS CONFLICTS: 0
L1D Cross Page Prefetch Requests: 6308979
L1D Same Page Prefetch Requests: 36107981
L1D ROI Sum of L1D PQ occupancy: 425328012
L1D PREFETCHES PUSHED FROM L2C: 0
L1I TOTAL     ACCESS:   40270871  HIT:   40270871  MISS:          0  HIT %:        100  MISS %:          0   MPKI: 0
L1I LOAD      ACCESS:   40270871  HIT:   40270871  MISS:          0  HIT %:        100  MISS %:          0   MPKI: 0
L1I PREFETCH  REQUESTED:          0  ISSUED:          0  USEFUL:          0  USELESS:          0
L1I USEFUL LOAD PREFETCHES:          0 PREFETCH ISSUED TO LOWER LEVEL:          0  ACCURACY: -nan
L1I TIMELY PREFETCHES:          0 LATE PREFETCHES: 0 DROPPED PREFETCHES: 0
L1I PREFETCHES SAME FILL-ORIGIN LEVEL: 0 DIFFERENT FILL-ORIGIN LEVEL: 0
L1I AVERAGE MISS LATENCY: -nan cycles
L1I RQ	ACCESS:   57983137	FORWARD:          0	MERGED:   17710765	TO_CACHE:   40272372

BTB TOTAL     ACCESS:   34206233  HIT:   34206220  MISS:         13  HIT %:        100  MISS %: 3.80048e-05   MPKI: 6.5e-05
BTB BRANCH_DIRECT_JUMP	ACCESS:    8271203  HIT:    8271199  MISS:          4
BTB BRANCH_INDIRECT	ACCESS:          0  HIT:          0  MISS:          0
BTB BRANCH_CONDITIONAL	ACCESS:   24431177  HIT:   24431169  MISS:          8
BTB BRANCH_DIRECT_CALL	ACCESS:     751927  HIT:     751926  MISS:          1
BTB BRANCH_INDIRECT_CALL	ACCESS:          0  HIT:          0  MISS:          0
BTB BRANCH_RETURN	ACCESS:     751926  HIT:     751926  MISS:          0
BTB BRANCH_OTHER ACCESS:          0  HIT:          0  MISS:          0

L2C TOTAL     ACCESS:    2709602  HIT:    2453454  MISS:     256148  HIT %:    90.5467  MISS %:    9.45334   MPKI: 1.28074
L2C LOAD      ACCESS:       2585  HIT:          0  MISS:       2585  HIT %:          0  MISS %:        100   MPKI: 0.012925
L2C DATA LOAD MPKI: 0.012925
L2C INSTRUCTION LOAD MPKI: 0
L2C RFO       ACCESS:      46996  HIT:          0  MISS:      46996  HIT %:          0  MISS %:        100   MPKI: 0.23498
L2C PREFETCH  ACCESS:     945179  HIT:     748028  MISS:     197151  HIT %:    79.1414  MISS %:    20.8586   MPKI: 0.985755
L2C DATA PREFETCH MPKI: 0.985755
L2C INSTRUCTION PREFETCH MPKI: 0
L2C WRITEBACK ACCESS:      46986  HIT:      38062  MISS:       8924  HIT %:    81.0071  MISS %:    18.9929   MPKI: 0.04462
L2C LOAD TRANSLATION ACCESS:       3856  HIT:       3759  MISS:         97  HIT %:    97.4844  MISS %:    2.51556   MPKI: 0.000485
L2C TRANSLATION FROM L1D PREFETCHER ACCESS:    1664000  HIT:    1663605  MISS:        395  HIT %:    99.9763  MISS %:   0.023738   MPKI: 0.001975
L2C PREFETCH  REQUESTED:          0  ISSUED:          0  USEFUL:        395  USELESS:     196562
L2C USEFUL LOAD PREFETCHES:        395 PREFETCH ISSUED TO LOWER LEVEL:     197202  ACCURACY: 0.200302
L2C TIMELY PREFETCHES:        395 LATE PREFETCHES: 0 DROPPED PREFETCHES: 0
L2C PREFETCHES SAME FILL-ORIGIN LEVEL: 89788 DIFFERENT FILL-ORIGIN LEVEL: 0
L2C AVERAGE MISS LATENCY: 143.075 cycles
L2C RQ	ACCESS:    1717445	FORWARD:          0	MERGED:          0	TO_CACHE:    1717445
L2C WQ	ACCESS:      46991	FORWARD:          0	MERGED:          0	TO_CACHE:      46991
L2C PQ	ACCESS:     950969	FORWARD:          0	MERGED:          0	TO_CACHE:     950969

L2C Instructions Evicting Data 0
L2C Translations Evicting Data 495
L2C Data Evicting Data 246168
L2C Instructions Evicting Instructions 0
L2C Translations Evicting Instructions 0
L2C Data Evicting Instructions 1
L2C Instructions Evicting Translations 0
L2C Translations Evicting Translations 0
L2C Data Evicting Translations 507
L2C Dense regions hint from L2: 0
PSCL5 TOTAL     ACCESS:    1667856  HIT:    1667856  MISS:          0  HIT %:        100  MISS %:          0   MPKI: 0
PSCL5 LOAD TRANSLATION ACCESS:       3856  HIT:       3856  MISS:          0  HIT %:        100  MISS %:          0   MPKI: 0
PSCL5 TRANSLATION FROM L1D PREFETCHER ACCESS:    1664000  HIT:    1664000  MISS:          0  HIT %:        100  MISS %:          0   MPKI: 0
PSCL5 PREFETCH  REQUESTED:          0  ISSUED:          0  USEFUL:          0  USELESS:          0
PSCL5 USEFUL LOAD PREFETCHES:          0 PREFETCH ISSUED TO LOWER LEVEL:          0  ACCURACY: -nan
PSCL5 TIMELY PREFETCHES:          0 LATE PREFETCHES: 0 DROPPED PREFETCHES: 0
PSCL5 PREFETCHES SAME FILL-ORIGIN LEVEL: 0 DIFFERENT FILL-ORIGIN LEVEL: 0

PSCL4 TOTAL     ACCESS:    1667856  HIT:    1667856  MISS:          0  HIT %:        100  MISS %:          0   MPKI: 0
PSCL4 LOAD TRANSLATION ACCESS:       3856  HIT:       3856  MISS:          0  HIT %:        100  MISS %:          0   MPKI: 0
PSCL4 TRANSLATION FROM L1D PREFETCHER ACCESS:    1664000  HIT:    1664000  MISS:          0  HIT %:        100  MISS %:          0   MPKI: 0
PSCL4 PREFETCH  REQUESTED:          0  ISSUED:          0  USEFUL:          0  USELESS:          0
PSCL4 USEFUL LOAD PREFETCHES:          0 PREFETCH ISSUED TO LOWER LEVEL:          0  ACCURACY: -nan
PSCL4 TIMELY PREFETCHES:          0 LATE PREFETCHES: 0 DROPPED PREFETCHES: 0
PSCL4 PREFETCHES SAME FILL-ORIGIN LEVEL: 0 DIFFERENT FILL-ORIGIN LEVEL: 0

PSCL3 TOTAL     ACCESS:    1667856  HIT:    1667856  MISS:          0  HIT %:        100  MISS %:          0   MPKI: 0
PSCL3 LOAD TRANSLATION ACCESS:       3856  HIT:       3856  MISS:          0  HIT %:        100  MISS %:          0   MPKI: 0
PSCL3 TRANSLATION FROM L1D PREFETCHER ACCESS:    1664000  HIT:    1664000  MISS:          0  HIT %:        100  MISS %:          0   MPKI: 0
PSCL3 PREFETCH  REQUESTED:          0  ISSUED:          0  USEFUL:          0  USELESS:          0
PSCL3 USEFUL LOAD PREFETCHES:          0 PREFETCH ISSUED TO LOWER LEVEL:          0  ACCURACY: -nan
PSCL3 TIMELY PREFETCHES:          0 LATE PREFETCHES: 0 DROPPED PREFETCHES: 0
PSCL3 PREFETCHES SAME FILL-ORIGIN LEVEL: 0 DIFFERENT FILL-ORIGIN LEVEL: 0

PSCL2 TOTAL     ACCESS:    1663562  HIT:    1663555  MISS:          7  HIT %:    99.9996  MISS %: 0.000420784   MPKI: 3.5e-05
PSCL2 LOAD TRANSLATION ACCESS:       3856  HIT:       3849  MISS:          7  HIT %:    99.8185  MISS %:   0.181535   MPKI: 3.5e-05
PSCL2 TRANSLATION FROM L1D PREFETCHER ACCESS:    1659706  HIT:    1659706  MISS:          0  HIT %:        100  MISS %:          0   MPKI: 0
PSCL2 PREFETCH  REQUESTED:          0  ISSUED:          0  USEFUL:          0  USELESS:          0
PSCL2 USEFUL LOAD PREFETCHES:          0 PREFETCH ISSUED TO LOWER LEVEL:          0  ACCURACY: -nan
PSCL2 TIMELY PREFETCHES:          0 LATE PREFETCHES: 0 DROPPED PREFETCHES: 0
PSCL2 PREFETCHES SAME FILL-ORIGIN LEVEL: 0 DIFFERENT FILL-ORIGIN LEVEL: 0

LLC TOTAL     ACCESS:     294685  HIT:      43093  MISS:     251592  HIT %:    14.6234  MISS %:    85.3766   MPKI: 1.25796
LLC LOAD      ACCESS:       2585  HIT:          0  MISS:       2585  HIT %:          0  MISS %:        100   MPKI: 0.012925
LLC RFO       ACCESS:      46996  HIT:          0  MISS:      46996  HIT %:          0  MISS %:        100   MPKI: 0.23498
LLC PREFETCH  ACCESS:     197151  HIT:          1  MISS:     197150  HIT %: 0.000507225  MISS %:    99.9995   MPKI: 0.98575
LLC WRITEBACK ACCESS:      47461  HIT:      43089  MISS:       4372  HIT %:    90.7882  MISS %:    9.21177   MPKI: 0.02186
LLC LOAD TRANSLATION ACCESS:         97  HIT:          3  MISS:         94  HIT %:    3.09278  MISS %:    96.9072   MPKI: 0.00047
LLC TRANSLATION FROM L1D PREFETCHER ACCESS:        395  HIT:          0  MISS:        395  HIT %:          0  MISS %:        100   MPKI: 0.001975
LLC PREFETCH  REQUESTED:          0  ISSUED:          0  USEFUL:          0  USELESS:     790250
LLC USEFUL LOAD PREFETCHES:          0 PREFETCH ISSUED TO LOWER LEVEL:     788695  ACCURACY: 0
LLC TIMELY PREFETCHES:          0 LATE PREFETCHES: 0 DROPPED PREFETCHES: 0
LLC PREFETCHES SAME FILL-ORIGIN LEVEL: 0 DIFFERENT FILL-ORIGIN LEVEL: 0
LLC AVERAGE MISS LATENCY: 481.055 cycles
LLC RQ	ACCESS:     200305	FORWARD:          0	MERGED:          0	TO_CACHE:     200305
LLC WQ	ACCESS:     189581	FORWARD:          0	MERGED:          0	TO_CACHE:     189581
LLC PQ	ACCESS:     788696	FORWARD:          0	MERGED:          0	TO_CACHE:     788696

LLC Dense regions hint to LLC: 0

RAW hits: 3027877
Loads Generated: 27069403
Loads sent to L1D: 24041526
Stores Generated: 9023125
Stores sent to L1D: 9023136
Major fault: 0 Minor fault: 4853
Allocated PAGES: 19412

CPU 1 cumulative IPC: 1.09702 instructions: 200000001 cycles: 182311549
ITLB TOTAL     ACCESS:   38031453  HIT:   38031453  MISS:          0  HIT %:        100  MISS %:          0   MPKI: 0
ITLB LOAD TRANSLATION ACCESS:   38031453  HIT:   38031453  MISS:          0  HIT %:        100  MISS %:          0   MPKI: 0
ITLB PREFETCH  REQUESTED:          0  ISSUED:          0  USEFUL:          0  USELESS:          0
ITLB USEFUL LOAD PREFETCHES:          0 PREFETCH ISSUED TO LOWER LEVEL:          0  ACCURACY: -nan
ITLB TIMELY PREFETCHES:          0 LATE PREFETCHES: 0 DROPPED PREFETCHES: 0
ITLB PREFETCHES SAME FILL-ORIGIN LEVEL: 0 DIFFERENT FILL-ORIGIN LEVEL: 0
ITLB AVERAGE MISS LATENCY: -nan cycles
ITLB RQ	ACCESS:   40270860	FORWARD:          0	MERGED:    2239407	TO_CACHE:   38031453

DTLB TOTAL     ACCESS:   22952611  HIT:   22948756  MISS:       3855  HIT %:    99.9832  MISS %:  0.0167955   MPKI: 0.019275
DTLB LOAD TRANSLATION ACCESS:   22952611  HIT:   22948756  MISS:       3855  HIT %:    99.9832  MISS %:  0.0167955   MPKI: 0.019275
DTLB PREFETCH  REQUESTED:          0  ISSUED:          0  USEFUL:          0  USELESS:          0
DTLB USEFUL LOAD PREFETCHES:          0 PREFETCH ISSUED TO LOWER LEVEL:          0  ACCURACY: -nan
DTLB TIMELY PREFETCHES:          0 LATE PREFETCHES: 0 DROPPED PREFETCHES: 0
DTLB PREFETCHES SAME FILL-ORIGIN LEVEL: 0 DIFFERENT FILL-ORIGIN LEVEL: 0
DTLB AVERAGE MISS LATENCY: 126.054 cycles
DTLB RQ	ACCESS:   25898434	FORWARD:          0	MERGED:    2945787	TO_CACHE:   22952647

STLB TOTAL     ACCESS:    3549135  HIT:    3545280  MISS:       3855  HIT %:    99.8914  MISS %:   0.108618   MPKI: 0.019275
STLB LOAD TRANSLATION ACCESS:       3855  HIT:          0  MISS:       3855  HIT %:          0  MISS %:        100   MPKI: 0.019275
STLB TRANSLATION FROM L1D PREFETCHER ACCESS:    3545280  HIT:    3545280  MISS:          0  HIT %:        100  MISS %:          0   MPKI: 0
STLB PREFETCH  REQUESTED:          0  ISSUED:          0  USEFUL:          0  USELESS:          0
STLB USEFUL LOAD PREFETCHES:          0 PREFETCH ISSUED TO LOWER LEVEL:          0  ACCURACY: -nan
STLB TIMELY PREFETCHES:          0 LATE PREFETCHES: 499 DROPPED PREFETCHES: 1681306
STLB PREFETCHES SAME FILL-ORIGIN LEVEL: 0 DIFFERENT FILL-ORIGIN LEVEL: 0
STLB AVERAGE MISS LATENCY: 118.384 cycles
STLB RQ	ACCESS:   25168932	FORWARD:          0	MERGED:   19935540	TO_CACHE:    5233392

STLB Hit, L1D data hit: 0
STLB Hit, L2C data hit: 0
STLB Hit, LLC data hit: 0
STLB Hit, LLC data miss: 0
STLB STLB hints to L2: 0
L1D TOTAL     ACCESS:   45948650  HIT:   45701936  MISS:     246714  HIT %:    99.4631  MISS %:   0.536934   MPKI: 1.23357
L1D LOAD      ACCESS:   16873278  HIT:   16870157  MISS:       3121  HIT %:    99.9815  MISS %:  0.0184967   MPKI: 0.015605
L1D RFO       ACCESS:    9018160  HIT:    8971164  MISS:      46996  HIT %:    99.4789  MISS %:   0.521126   MPKI: 0.23498
L1D PREFETCH  ACCESS:   20057212  HIT:   19860615  MISS:     196597  HIT %:    99.0198  MISS %:   0.980181   MPKI: 0.982985
L1D PREFETCH  REQUESTED:   55400824  ISSUED:   55394185  USEFUL:     196610  USELESS:          0
L1D USEFUL LOAD PREFETCHES:     196610 PREFETCH ISSUED TO LOWER LEVEL:     957931  ACCURACY: 20.5244
L1D TIMELY PREFETCHES:     196610 LATE PREFETCHES: 537 DROPPED PREFETCHES: 4325745
L1D PREFETCHES SAME FILL-ORIGIN LEVEL: 197134 DIFFERENT FILL-ORIGIN LEVEL: 760797
L1D AVERAGE MISS LATENCY: 111.156 cycles
L1D RQ	ACCESS:   24041533	FORWARD:          0	MERGED:    7153534	TO_CACHE:   16875298
L1D WQ	ACCESS:    9023136	FORWARD:      12701	MERGED:          0	TO_CACHE:    9023136
L1D PQ	ACCESS:   30229109	FORWARD:          0	MERGED:    5064033	TO_CACHE:   25165076

L1D UNIQUE REGIONS ACCESSED: 0
L1D REGIONS CONFLICTS: 0
L1D Cross Page Prefetch Requests: 6338002
L1D Same Page Prefetch Requests: 36088997
L1D ROI Sum of L1D PQ occupancy: 426592665
L1D PREFETCHES PUSHED FROM L2C: 0
L1I TOTAL     ACCESS:   40270860  HIT:   40270860  MISS:          0  HIT %:        100  MISS %:          0   MPKI: 0
L1I LOAD      ACCESS:   40270860  HIT:   40270860  MISS:          0  HIT %:        100  MISS %:          0   MPKI: 0
L1I PREFETCH  REQUESTED:          0  ISSUED:          0  USEFUL:          0  USELESS:          0
L1I USEFUL LOAD PREFETCHES:          0 PREFETCH ISSUED TO LOWER LEVEL:          0  ACCURACY: -nan
L1I TIMELY PREFETCHES:          0 LATE PREFETCHES: 0 DROPPED PREFETCHES: 0
L1I PREFETCHES SAME FILL-ORIGIN LEVEL: 0 DIFFERENT FILL-ORIGIN LEVEL: 0
L1I AVERAGE MISS LATENCY: -nan cycles
L1I RQ	ACCESS:   57980800	FORWARD:          0	MERGED:   17709940	TO_CACHE:   40270860

BTB TOTAL     ACCESS:   34206207  HIT:   34206191  MISS:         16  HIT %:        100  MISS %: 4.67751e-05   MPKI: 8e-05
BTB BRANCH_DIRECT_JUMP	ACCESS:    8271196  HIT:    8271192  MISS:          4
BTB BRANCH_INDIRECT	ACCESS:          0  HIT:          0  MISS:          0
BTB BRANCH_CONDITIONAL	ACCESS:   24431157  HIT:   24431147  MISS:         10
BTB BRANCH_DIRECT_CALL	ACCESS:     751927  HIT:     751926  MISS:          1
BTB BRANCH_INDIRECT_CALL	ACCESS:          0  HIT:          0  MISS:          0
BTB BRANCH_RETURN	ACCESS:     751927  HIT:     751926  MISS:          1
BTB BRANCH_OTHER ACCESS:          0  HIT:          0  MISS:          0

L2C TOTAL     ACCESS:    2734521  HIT:    2478608  MISS:     255913  HIT %:    90.6414  MISS %:     9.3586   MPKI: 1.27956
L2C LOAD      ACCESS:       2584  HIT:          0  MISS:       2584  HIT %:          0  MISS %:        100   MPKI: 0.01292
L2C DATA LOAD MPKI: 0.01292
L2C INSTRUCTION LOAD MPKI: 0
L2C RFO       ACCESS:      46996  HIT:          0  MISS:      46996  HIT %:          0  MISS %:        100   MPKI: 0.23498
L2C PREFETCH  ACCESS:     952294  HIT:     755159  MISS:     197135  HIT %:    79.2989  MISS %:    20.7011   MPKI: 0.985675
L2C DATA PREFETCH MPKI: 0.985675
L2C INSTRUCTION PREFETCH MPKI: 0
L2C WRITEBACK ACCESS:      46986  HIT:      38276  MISS:       8710  HIT %:    81.4626  MISS %:    18.5374   MPKI: 0.04355
L2C LOAD TRANSLATION ACCESS:       3855  HIT:       3762  MISS:         93  HIT %:    97.5875  MISS %:    2.41245   MPKI: 0.000465
L2C TRANSLATION FROM L1D PREFETCHER ACCESS:    1681806  HIT:    1681411  MISS:        395  HIT %:    99.9765  MISS %:  0.0234867   MPKI: 0.001975
L2C PREFETCH  REQUESTED:          0  ISSUED:          0  USEFUL:        395  USELESS:     196516
L2C USEFUL LOAD PREFETCHES:        395 PREFETCH ISSUED TO LOWER LEVEL:     197135  ACCURACY: 0.20037
L2C TIMELY PREFETCHES:        395 LATE PREFETCHES: 0 DROPPED PREFETCHES: 0
L2C PREFETCHES SAME FILL-ORIGIN LEVEL: 89874 DIFFERENT FILL-ORIGIN LEVEL: 0
L2C AVERAGE MISS LATENCY: 148.184 cycles
L2C RQ	ACCESS:    1735242	FORWARD:          0	MERGED:          0	TO_CACHE:    1735242
L2C WQ	ACCESS:      46986	FORWARD:          0	MERGED:          0	TO_CACHE:      46986
L2C PQ	ACCESS:     957931	FORWARD:          0	MERGED:          0	TO_CACHE:     957931

L2C Instructions Evicting Data 0
L2C Translations Evicting Data 488
L2C Data Evicting Data 246092
L2C Instructions Evicting Instructions 0
L2C Translations Evicting Instructions 0
L2C Data Evicting Instructions 0
L2C Instructions Evicting Translations 0
L2C Translations Evicting Translations 0
L2C Data Evicting Translations 469
L2C Dense regions hint from L2: 0
PSCL5 TOTAL     ACCESS:    1685662  HIT:    1685662  MISS:          0  HIT %:        100  MISS %:          0   MPKI: 0
PSCL5 LOAD TRANSLATION ACCESS:       3856  HIT:       3856  MISS:          0  HIT %:        100  MISS %:          0   MPKI: 0
PSCL5 TRANSLATION FROM L1D PREFETCHER ACCESS:    1681806  HIT:    1681806  MISS:          0  HIT %:        100  MISS %:          0   MPKI: 0
PSCL5 PREFETCH  REQUESTED:          0  ISSUED:          0  USEFUL:          0  USELESS:          0
PSCL5 USEFUL LOAD PREFETCHES:          0 PREFETCH ISSUED TO LOWER LEVEL:          0  ACCURACY: -nan
PSCL5 TIMELY PREFETCHES:          0 LATE PREFETCHES: 0 DROPPED PREFETCHES: 0
PSCL5 PREFETCHES SAME FILL-ORIGIN LEVEL: 0 DIFFERENT FILL-ORIGIN LEVEL: 0

PSCL4 TOTAL     ACCESS:    1685662  HIT:    1685662  MISS:          0  HIT %:        100  MISS %:          0   MPKI: 0
PSCL4 LOAD TRANSLATION ACCESS:       3856  HIT:       3856  MISS:          0  HIT %:        100  MISS %:          0   MPKI: 0
PSCL4 TRANSLATION FROM L1D PREFETCHER ACCESS:    1681806  HIT:    1681806  MISS:          0  HIT %:        100  MISS %:          0   MPKI: 0
PSCL4 PREFETCH  REQUESTED:          0  ISSUED:          0  USEFUL:          0  USELESS:          0
PSCL4 USEFUL LOAD PREFETCHES:          0 PREFETCH ISSUED TO LOWER LEVEL:          0  ACCURACY: -nan
PSCL4 TIMELY PREFETCHES:          0 LATE PREFETCHES: 0 DROPPED PREFETCHES: 0
PSCL4 PREFETCHES SAME FILL-ORIGIN LEVEL: 0 DIFFERENT FILL-ORIGIN LEVEL: 0

PSCL3 TOTAL     ACCESS:    1685662  HIT:    1685662  MISS:          0  HIT %:        100  MISS %:          0   MPKI: 0
PSCL3 LOAD TRANSLATION ACCESS:       3856  HIT:       3856  MISS:          0  HIT %:        100  MISS %:          0   MPKI: 0
PSCL3 TRANSLATION FROM L1D PREFETCHER ACCESS:    1681806  HIT:    1681806  MISS:          0  HIT %:        100  MISS %:          0   MPKI: 0
PSCL3 PREFETCH  REQUESTED:          0  ISSUED:          0  USEFUL:          0  USELESS:          0
PSCL3 USEFUL LOAD PREFETCHES:          0 PREFETCH ISSUED TO LOWER LEVEL:          0  ACCURACY: -nan
PSCL3 TIMELY PREFETCHES:          0 LATE PREFETCHES: 0 DROPPED PREFETCHES: 0
PSCL3 PREFETCHES SAME FILL-ORIGIN LEVEL: 0 DIFFERENT FILL-ORIGIN LEVEL: 0

PSCL2 TOTAL     ACCESS:    1681436  HIT:    1681429  MISS:          7  HIT %:    99.9996  MISS %: 0.000416311   MPKI: 3.5e-05
PSCL2 LOAD TRANSLATION ACCESS:       3856  HIT:       3849  MISS:          7  HIT %:    99.8185  MISS %:   0.181535   MPKI: 3.5e-05
PSCL2 TRANSLATION FROM L1D PREFETCHER ACCESS:    1677580  HIT:    1677580  MISS:          0  HIT %:        100  MISS %:          0   MPKI: 0
PSCL2 PREFETCH  REQUESTED:          0  ISSUED:          0  USEFUL:          0  USELESS:          0
PSCL2 USEFUL LOAD PREFETCHES:          0 PREFETCH ISSUED TO LOWER LEVEL:          0  ACCURACY: -nan
PSCL2 TIMELY PREFETCHES:          0 LATE PREFETCHES: 0 DROPPED PREFETCHES: 0
PSCL2 PREFETCHES SAME FILL-ORIGIN LEVEL: 0 DIFFERENT FILL-ORIGIN LEVEL: 0

LLC TOTAL     ACCESS:     294651  HIT:      41949  MISS:     252702  HIT %:    14.2368  MISS %:    85.7632   MPKI: 1.26351
LLC LOAD      ACCESS:       2584  HIT:          0  MISS:       2584  HIT %:          0  MISS %:        100   MPKI: 0.01292
LLC RFO       ACCESS:      46996  HIT:          0  MISS:      46996  HIT %:          0  MISS %:        100   MPKI: 0.23498
LLC PREFETCH  ACCESS:     197135  HIT:          0  MISS:     197135  HIT %:          0  MISS %:        100   MPKI: 0.985675
LLC WRITEBACK ACCESS:      47448  HIT:      41949  MISS:       5499  HIT %:    88.4105  MISS %:    11.5895   MPKI: 0.027495
LLC LOAD TRANSLATION ACCESS:         93  HIT:          0  MISS:         93  HIT %:          0  MISS %:        100   MPKI: 0.000465
LLC TRANSLATION FROM L1D PREFETCHER ACCESS:        395  HIT:          0  MISS:        395  HIT %:          0  MISS %:        100   MPKI: 0.001975
LLC PREFETCH  REQUESTED:          0  ISSUED:          0  USEFUL:          0  USELESS:     790250
LLC USEFUL LOAD PREFETCHES:          0 PREFETCH ISSUED TO LOWER LEVEL:     788695  ACCURACY: 0
LLC TIMELY PREFETCHES:          0 LATE PREFETCHES: 0 DROPPED PREFETCHES: 0
LLC PREFETCHES SAME FILL-ORIGIN LEVEL: 0 DIFFERENT FILL-ORIGIN LEVEL: 0
LLC AVERAGE MISS LATENCY: 478.942 cycles
LLC RQ	ACCESS:     200305	FORWARD:          0	MERGED:          0	TO_CACHE:     200305
LLC WQ	ACCESS:     189581	FORWARD:          0	MERGED:          0	TO_CACHE:     189581
LLC PQ	ACCESS:     788696	FORWARD:          0	MERGED:          0	TO_CACHE:     788696

LLC Dense regions hint to LLC: 0

RAW hits: 3027870
Loads Generated: 27069403
Loads sent to L1D: 24041533
Stores Generated: 9023136
Stores sent to L1D: 9023136
Major fault: 0 Minor fault: 4853
Allocated PAGES: 19412

CPU 2 cumulative IPC: 1.09705 instructions: 200000002 cycles: 182307290
ITLB TOTAL     ACCESS:   38031486  HIT:   38031486  MISS:          0  HIT %:        100  MISS %:          0   MPKI: 0
ITLB LOAD TRANSLATION ACCESS:   38031486  HIT:   38031486  MISS:          0  HIT %:        100  MISS %:          0   MPKI: 0
ITLB PREFETCH  REQUESTED:          0  ISSUED:          0  USEFUL:          0  USELESS:          0
ITLB USEFUL LOAD PREFETCHES:          0 PREFETCH ISSUED TO LOWER LEVEL:          0  ACCURACY: -nan
ITLB TIMELY PREFETCHES:          0 LATE PREFETCHES: 0 DROPPED PREFETCHES: 0
ITLB PREFETCHES SAME FILL-ORIGIN LEVEL: 0 DIFFERENT FILL-ORIGIN LEVEL: 0
ITLB AVERAGE MISS LATENCY: -nan cycles
ITLB RQ	ACCESS:   40271421	FORWARD:          0	MERGED:    2239434	TO_CACHE:   38031987

DTLB TOTAL     ACCESS:   22952608  HIT:   22948752  MISS:       3856  HIT %:    99.9832  MISS %:  0.0167998   MPKI: 0.01928
DTLB LOAD TRANSLATION ACCESS:   22952608  HIT:   22948752  MISS:       3856  HIT %:    99.9832  MISS %:  0.0167998   MPKI: 0.01928
DTLB PREFETCH  REQUESTED:          0  ISSUED:          0  USEFUL:          0  USELESS:          0
DTLB USEFUL LOAD PREFETCHES:          0 PREFETCH ISSUED TO LOWER LEVEL:          0  ACCURACY: -nan
DTLB TIMELY PREFETCHES:          0 LATE PREFETCHES: 0 DROPPED PREFETCHES: 0
DTLB PREFETCHES SAME FILL-ORIGIN LEVEL: 0 DIFFERENT FILL-ORIGIN LEVEL: 0
DTLB AVERAGE MISS LATENCY: 126.759 cycles
DTLB RQ	ACCESS:   25898851	FORWARD:          0	MERGED:    2945812	TO_CACHE:   22953039

STLB TOTAL     ACCESS:    3549670  HIT:    3545814  MISS:       3856  HIT %:    99.8914  MISS %:    0.10863   MPKI: 0.01928
STLB LOAD TRANSLATION ACCESS:       3856  HIT:          0  MISS:       3856  HIT %:          0  MISS %:        100   MPKI: 0.01928
STLB TRANSLATION FROM L1D PREFETCHER ACCESS:    3545814  HIT:    3545814  MISS:          0  HIT %:        100  MISS %:          0   MPKI: 0
STLB PREFETCH  REQUESTED:          0  ISSUED:          0  USEFUL:          2  USELESS:          0
STLB USEFUL LOAD PREFETCHES:          2 PREFETCH ISSUED TO LOWER LEVEL:          0  ACCURACY: inf
STLB TIMELY PREFETCHES:          2 LATE PREFETCHES: 499 DROPPED PREFETCHES: 1666498
STLB PREFETCHES SAME FILL-ORIGIN LEVEL: 0 DIFFERENT FILL-ORIGIN LEVEL: 0
STLB AVERAGE MISS LATENCY: 119.147 cycles
STLB RQ	ACCESS:   25175568	FORWARD:          0	MERGED:   19956350	TO_CACHE:    5219218

STLB Hit, L1D data hit: 0
STLB Hit, L2C data hit: 0
STLB Hit, LLC data hit: 0
STLB Hit, LLC data miss: 0
STLB STLB hints to L2: 0
L1D TOTAL     ACCESS:   45948612  HIT:   45701896  MISS:     246716  HIT %:    99.4631  MISS %:   0.536939   MPKI: 1.23358
L1D LOAD      ACCESS:   16873293  HIT:   16870171  MISS:       3122  HIT %:    99.9815  MISS %:  0.0185026   MPKI: 0.01561
L1D RFO       ACCESS:    9017661  HIT:    8970665  MISS:      46996  HIT %:    99.4788  MISS %:   0.521155   MPKI: 0.23498
L1D PREFETCH  ACCESS:   20057658  HIT:   19861060  MISS:     196598  HIT %:    99.0198  MISS %:   0.980164   MPKI: 0.98299
L1D PREFETCH  REQUESTED:   55411415  ISSUED:   55404084  USEFUL:     196612  USELESS:          0
L1D USEFUL LOAD PREFETCHES:     196612 PREFETCH ISSUED TO LOWER LEVEL:     958353  ACCURACY: 20.5156
L1D TIMELY PREFETCHES:     196612 LATE PREFETCHES: 537 DROPPED PREFETCHES: 4332282
L1D PREFETCHES SAME FILL-ORIGIN LEVEL: 197157 DIFFERENT FILL-ORIGIN LEVEL: 761196
L1D AVERAGE MISS LATENCY: 107.671 cycles
L1D RQ	ACCESS:   24041894	FORWARD:          0	MERGED:    7153605	TO_CACHE:   16875593
L1D WQ	ACCESS:    9023258	FORWARD:      12696	MERGED:          0	TO_CACHE:    9023258
L1D PQ	ACCESS:   30232374	FORWARD:          0	MERGED:    5060664	TO_CACHE:   25171710

L1D UNIQUE REGIONS ACCESSED: 0
L1D REGIONS CONFLICTS: 0
L1D Cross Page Prefetch Requests: 6333644
L1D Same Page Prefetch Requests: 36108508
L1D ROI Sum of L1D PQ occupancy: 426393760
L1D PREFETCHES PUSHED FROM L2C: 0
L1I TOTAL     ACCESS:   40270894  HIT:   40270894  MISS:          0  HIT %:        100  MISS %:          0   MPKI: 0
L1I LOAD      ACCESS:   40270894  HIT:   40270894  MISS:          0  HIT %:        100  MISS %:          0   MPKI: 0
L1I PREFETCH  REQUESTED:          0  ISSUED:          0  USEFUL:          0  USELESS:          0
L1I USEFUL LOAD PREFETCHES:          0 PREFETCH ISSUED TO LOWER LEVEL:          0  ACCURACY: -nan
L1I TIMELY PREFETCHES:          0 LATE PREFETCHES: 0 DROPPED PREFETCHES: 0
L1I PREFETCHES SAME FILL-ORIGIN LEVEL: 0 DIFFERENT FILL-ORIGIN LEVEL: 0
L1I AVERAGE MISS LATENCY: -nan cycles
L1I RQ	ACCESS:   57981743	FORWARD:          0	MERGED:   17710322	TO_CACHE:   40271421

BTB TOTAL     ACCESS:   34206233  HIT:   34206218  MISS:         15  HIT %:        100  MISS %: 4.38517e-05   MPKI: 7.5e-05
BTB BRANCH_DIRECT_JUMP	ACCESS:    8271202  HIT:    8271198  MISS:          4
BTB BRANCH_INDIRECT	ACCESS:          0  HIT:          0  MISS:          0
BTB BRANCH_CONDITIONAL	ACCESS:   24431177  HIT:   24431168  MISS:          9
BTB BRANCH_DIRECT_CALL	ACCESS:     751927  HIT:     751926  MISS:          1
BTB BRANCH_INDIRECT_CALL	ACCESS:          0  HIT:          0  MISS:          0
BTB BRANCH_RETURN	ACCESS:     751927  HIT:     751926  MISS:          1
BTB BRANCH_OTHER ACCESS:          0  HIT:          0  MISS:          0

L2C TOTAL     ACCESS:    2719988  HIT:    2463906  MISS:     256082  HIT %:    90.5852  MISS %:    9.41482   MPKI: 1.28041
L2C LOAD      ACCESS:       2585  HIT:          0  MISS:       2585  HIT %:          0  MISS %:        100   MPKI: 0.012925
L2C DATA LOAD MPKI: 0.012925
L2C INSTRUCTION LOAD MPKI: 0
L2C RFO       ACCESS:      46996  HIT:          0  MISS:      46996  HIT %:          0  MISS %:        100   MPKI: 0.23498
L2C PREFETCH  ACCESS:     952568  HIT:     755432  MISS:     197136  HIT %:    79.3048  MISS %:    20.6952   MPKI: 0.98568
L2C DATA PREFETCH MPKI: 0.98568
L2C INSTRUCTION PREFETCH MPKI: 0
L2C WRITEBACK ACCESS:      46986  HIT:      38114  MISS:       8872  HIT %:    81.1178  MISS %:    18.8822   MPKI: 0.04436
L2C LOAD TRANSLATION ACCESS:       3856  HIT:       3758  MISS:         98  HIT %:    97.4585  MISS %:    2.54149   MPKI: 0.00049
L2C TRANSLATION FROM L1D PREFETCHER ACCESS:    1666997  HIT:    1666602  MISS:        395  HIT %:    99.9763  MISS %:  0.0236953   MPKI: 0.001975
L2C PREFETCH  REQUESTED:          0  ISSUED:          0  USEFUL:        395  USELESS:     196496
L2C USEFUL LOAD PREFETCHES:        395 PREFETCH ISSUED TO LOWER LEVEL:     197168  ACCURACY: 0.200337
L2C TIMELY PREFETCHES:        395 LATE PREFETCHES: 0 DROPPED PREFETCHES: 0
L2C PREFETCHES SAME FILL-ORIGIN LEVEL: 90766 DIFFERENT FILL-ORIGIN LEVEL: 0
L2C AVERAGE MISS LATENCY: 142.682 cycles
L2C RQ	ACCESS:    1720441	FORWARD:          0	MERGED:          0	TO_CACHE:    1720441
L2C WQ	ACCESS:      46988	FORWARD:          0	MERGED:          0	TO_CACHE:      46988
L2C PQ	ACCESS:     958353	FORWARD:          0	MERGED:          1	TO_CACHE:     958352

L2C Instructions Evicting Data 0
L2C Translations Evicting Data 496
L2C Data Evicting Data 246240
L2C Instructions Evicting Instructions 0
L2C Translations Evicting Instructions 0
L2C Data Evicting Instructions 0
L2C Instructions Evicting Translations 0
L2C Translations Evicting Translations 0
L2C Data Evicting Translations 500
L2C Dense regions hint from L2: 0
PSCL5 TOTAL     ACCESS:    1670853  HIT:    1670853  MISS:          0  HIT %:        100  MISS %:          0   MPKI: 0
PSCL5 LOAD TRANSLATION ACCESS:       3856  HIT:       3856  MISS:          0  HIT %:        100  MISS %:          0   MPKI: 0
PSCL5 TRANSLATION FROM L1D PREFETCHER ACCESS:    1666997  HIT:    1666997  MISS:          0  HIT %:        100  MISS %:          0   MPKI: 0
PSCL5 PREFETCH  REQUESTED:          0  ISSUED:          0  USEFUL:          0  USELESS:          0
PSCL5 USEFUL LOAD PREFETCHES:          0 PREFETCH ISSUED TO LOWER LEVEL:          0  ACCURACY: -nan
PSCL5 TIMELY PREFETCHES:          0 LATE PREFETCHES: 0 DROPPED PREFETCHES: 0
PSCL5 PREFETCHES SAME FILL-ORIGIN LEVEL: 0 DIFFERENT FILL-ORIGIN LEVEL: 0

PSCL4 TOTAL     ACCESS:    1670853  HIT:    1670853  MISS:          0  HIT %:        100  MISS %:          0   MPKI: 0
PSCL4 LOAD TRANSLATION ACCESS:       3856  HIT:       3856  MISS:          0  HIT %:        100  MISS %:          0   MPKI: 0
PSCL4 TRANSLATION FROM L1D PREFETCHER ACCESS:    1666997  HIT:    1666997  MISS:          0  HIT %:        100  MISS %:          0   MPKI: 0
PSCL4 PREFETCH  REQUESTED:          0  ISSUED:          0  USEFUL:          0  USELESS:          0
PSCL4 USEFUL LOAD PREFETCHES:          0 PREFETCH ISSUED TO LOWER LEVEL:          0  ACCURACY: -nan
PSCL4 TIMELY PREFETCHES:          0 LATE PREFETCHES: 0 DROPPED PREFETCHES: 0
PSCL4 PREFETCHES SAME FILL-ORIGIN LEVEL: 0 DIFFERENT FILL-ORIGIN LEVEL: 0

PSCL3 TOTAL     ACCESS:    1670853  HIT:    1670853  MISS:          0  HIT %:        100  MISS %:          0   MPKI: 0
PSCL3 LOAD TRANSLATION ACCESS:       3856  HIT:       3856  MISS:          0  HIT %:        100  MISS %:          0   MPKI: 0
PSCL3 TRANSLATION FROM L1D PREFETCHER ACCESS:    1666997  HIT:    1666997  MISS:          0  HIT %:        100  MISS %:          0   MPKI: 0
PSCL3 PREFETCH  REQUESTED:          0  ISSUED:          0  USEFUL:          0  USELESS:          0
PSCL3 USEFUL LOAD PREFETCHES:          0 PREFETCH ISSUED TO LOWER LEVEL:          0  ACCURACY: -nan
PSCL3 TIMELY PREFETCHES:          0 LATE PREFETCHES: 0 DROPPED PREFETCHES: 0
PSCL3 PREFETCHES SAME FILL-ORIGIN LEVEL: 0 DIFFERENT FILL-ORIGIN LEVEL: 0

PSCL2 TOTAL     ACCESS:    1666563  HIT:    1666556  MISS:          7  HIT %:    99.9996  MISS %: 0.000420026   MPKI: 3.5e-05
PSCL2 LOAD TRANSLATION ACCESS:       3856  HIT:       3849  MISS:          7  HIT %:    99.8185  MISS %:   0.181535   MPKI: 3.5e-05
PSCL2 TRANSLATION FROM L1D PREFETCHER ACCESS:    1662707  HIT:    1662707  MISS:          0  HIT %:        100  MISS %:          0   MPKI: 0
PSCL2 PREFETCH  REQUESTED:          0  ISSUED:          0  USEFUL:          0  USELESS:          0
PSCL2 USEFUL LOAD PREFETCHES:          0 PREFETCH ISSUED TO LOWER LEVEL:          0  ACCURACY: -nan
PSCL2 TIMELY PREFETCHES:          0 LATE PREFETCHES: 0 DROPPED PREFETCHES: 0
PSCL2 PREFETCHES SAME FILL-ORIGIN LEVEL: 0 DIFFERENT FILL-ORIGIN LEVEL: 0

LLC TOTAL     ACCESS:     294853  HIT:      42616  MISS:     252237  HIT %:    14.4533  MISS %:    85.5467   MPKI: 1.26118
LLC LOAD      ACCESS:       2585  HIT:          0  MISS:       2585  HIT %:          0  MISS %:        100   MPKI: 0.012925
LLC RFO       ACCESS:      46996  HIT:          0  MISS:      46996  HIT %:          0  MISS %:        100   MPKI: 0.23498
LLC PREFETCH  ACCESS:     197141  HIT:          0  MISS:     197141  HIT %:          0  MISS %:        100   MPKI: 0.985705
LLC WRITEBACK ACCESS:      47638  HIT:      42612  MISS:       5026  HIT %:    89.4496  MISS %:    10.5504   MPKI: 0.02513
LLC LOAD TRANSLATION ACCESS:         98  HIT:          4  MISS:         94  HIT %:    4.08163  MISS %:    95.9184   MPKI: 0.00047
LLC TRANSLATION FROM L1D PREFETCHER ACCESS:        395  HIT:          0  MISS:        395  HIT %:          0  MISS %:        100   MPKI: 0.001975
LLC PREFETCH  REQUESTED:          0  ISSUED:          0  USEFUL:          0  USELESS:     790250
LLC USEFUL LOAD PREFETCHES:          0 PREFETCH ISSUED TO LOWER LEVEL:     788695  ACCURACY: 0
LLC TIMELY PREFETCHES:          0 LATE PREFETCHES: 0 DROPPED PREFETCHES: 0
LLC PREFETCHES SAME FILL-ORIGIN LEVEL: 0 DIFFERENT FILL-ORIGIN LEVEL: 0
LLC AVERAGE MISS LATENCY: 479.824 cycles
LLC RQ	ACCESS:     200305	FORWARD:          0	MERGED:          0	TO_CACHE:     200305
LLC WQ	ACCESS:     189581	FORWARD:          0	MERGED:          0	TO_CACHE:     189581
LLC PQ	ACCESS:     788696	FORWARD:          0	MERGED:          0	TO_CACHE:     788696

LLC Dense regions hint to LLC: 0

RAW hits: 3027877
Loads Generated: 27069408
Loads sent to L1D: 24041531
Stores Generated: 9023135
Stores sent to L1D: 9023136
Major fault: 0 Minor fault: 4853
Allocated PAGES: 19412

CPU 3 cumulative IPC: 1.09708 instructions: 200000003 cycles: 182301382
ITLB TOTAL     ACCESS:   38031402  HIT:   38031402  MISS:          0  HIT %:        100  MISS %:          0   MPKI: 0
ITLB LOAD TRANSLATION ACCESS:   38031402  HIT:   38031402  MISS:          0  HIT %:        100  MISS %:          0   MPKI: 0
ITLB PREFETCH  REQUESTED:          0  ISSUED:          0  USEFUL:          0  USELESS:          0
ITLB USEFUL LOAD PREFETCHES:          0 PREFETCH ISSUED TO LOWER LEVEL:          0  ACCURACY: -nan
ITLB TIMELY PREFETCHES:          0 LATE PREFETCHES: 0 DROPPED PREFETCHES: 0
ITLB PREFETCHES SAME FILL-ORIGIN LEVEL: 0 DIFFERENT FILL-ORIGIN LEVEL: 0
ITLB AVERAGE MISS LATENCY: -nan cycles
ITLB RQ	ACCESS:   40272346	FORWARD:          0	MERGED:    2239498	TO_CACHE:   38032848

DTLB TOTAL     ACCESS:   22952620  HIT:   22948764  MISS:       3856  HIT %:    99.9832  MISS %:  0.0167998   MPKI: 0.01928
DTLB LOAD TRANSLATION ACCESS:   22952620  HIT:   22948764  MISS:       3856  HIT %:    99.9832  MISS %:  0.0167998   MPKI: 0.01928
DTLB PREFETCH  REQUESTED:          0  ISSUED:          0  USEFUL:          0  USELESS:          0
DTLB USEFUL LOAD PREFETCHES:          0 PREFETCH ISSUED TO LOWER LEVEL:          0  ACCURACY: -nan
DTLB TIMELY PREFETCHES:          0 LATE PREFETCHES: 0 DROPPED PREFETCHES: 0
DTLB PREFETCHES SAME FILL-ORIGIN LEVEL: 0 DIFFERENT FILL-ORIGIN LEVEL: 0
DTLB AVERAGE MISS LATENCY: 126.039 cycles
DTLB RQ	ACCESS:   25899596	FORWARD:          0	MERGED:    2945907	TO_CACHE:   22953689

STLB TOTAL     ACCESS:    3549693  HIT:    3545837  MISS:       3856  HIT %:    99.8914  MISS %:   0.108629   MPKI: 0.01928
STLB LOAD TRANSLATION ACCESS:       3856  HIT:          0  MISS:       3856  HIT %:          0  MISS %:        100   MPKI: 0.01928
STLB TRANSLATION FROM L1D PREFETCHER ACCESS:    3545837  HIT:    3545837  MISS:          0  HIT %:        100  MISS %:          0   MPKI: 0
STLB PREFETCH  REQUESTED:          0  ISSUED:          0  USEFUL:          2  USELESS:          0
STLB USEFUL LOAD PREFETCHES:          2 PREFETCH ISSUED TO LOWER LEVEL:          0  ACCURACY: inf
STLB TIMELY PREFETCHES:          2 LATE PREFETCHES: 499 DROPPED PREFETCHES: 1667984
STLB PREFETCHES SAME FILL-ORIGIN LEVEL: 0 DIFFERENT FILL-ORIGIN LEVEL: 0
STLB AVERAGE MISS LATENCY: 118.446 cycles
STLB RQ	ACCESS:   25170138	FORWARD:          0	MERGED:   19949251	TO_CACHE:    5220887

STLB Hit, L1D data hit: 0
STLB Hit, L2C data hit: 0
STLB Hit, LLC data hit: 0
STLB Hit, LLC data miss: 0
STLB STLB hints to L2: 0
L1D TOTAL     ACCESS:   45953784  HIT:   45707063  MISS:     246721  HIT %:    99.4631  MISS %:   0.536889   MPKI: 1.2336
L1D LOAD      ACCESS:   16873289  HIT:   16870167  MISS:       3122  HIT %:    99.9815  MISS %:  0.0185026   MPKI: 0.01561
L1D RFO       ACCESS:    9017807  HIT:    8970811  MISS:      46996  HIT %:    99.4789  MISS %:   0.521147   MPKI: 0.23498
L1D PREFETCH  ACCESS:   20062688  HIT:   19866085  MISS:     196603  HIT %:    99.0201  MISS %:   0.979943   MPKI: 0.983015
L1D PREFETCH  REQUESTED:   55401657  ISSUED:   55394751  USEFUL:     196617  USELESS:          0
L1D USEFUL LOAD PREFETCHES:     196617 PREFETCH ISSUED TO LOWER LEVEL:     953132  ACCURACY: 20.6285
L1D TIMELY PREFETCHES:     196617 LATE PREFETCHES: 537 DROPPED PREFETCHES: 4324563
L1D PREFETCHES SAME FILL-ORIGIN LEVEL: 197168 DIFFERENT FILL-ORIGIN LEVEL: 755964
L1D AVERAGE MISS LATENCY: 116.592 cycles
L1D RQ	ACCESS:   24042568	FORWARD:          0	MERGED:    7153764	TO_CACHE:   16876099
L1D WQ	ACCESS:    9023497	FORWARD:      12705	MERGED:          0	TO_CACHE:    9023497
L1D PQ	ACCESS:   30228471	FORWARD:          0	MERGED:    5062191	TO_CACHE:   25166280

L1D UNIQUE REGIONS ACCESSED: 0
L1D REGIONS CONFLICTS: 0
L1D Cross Page Prefetch Requests: 6326051
L1D Same Page Prefetch Requests: 36106869
L1D ROI Sum of L1D PQ occupancy: 426007975
L1D PREFETCHES PUSHED FROM L2C: 0
L1I TOTAL     ACCESS:   40270815  HIT:   40270815  MISS:          0  HIT %:        100  MISS %:          0   MPKI: 0
L1I LOAD      ACCESS:   40270815  HIT:   40270815  MISS:          0  HIT %:        100  MISS %:          0   MPKI: 0
L1I PREFETCH  REQUESTED:          0  ISSUED:          0  USEFUL:          0  USELESS:          0
L1I USEFUL LOAD PREFETCHES:          0 PREFETCH ISSUED TO LOWER LEVEL:          0  ACCURACY: -nan
L1I TIMELY PREFETCHES:          0 LATE PREFETCHES: 0 DROPPED PREFETCHES: 0
L1I PREFETCHES SAME FILL-ORIGIN LEVEL: 0 DIFFERENT FILL-ORIGIN LEVEL: 0
L1I AVERAGE MISS LATENCY: -nan cycles
L1I RQ	ACCESS:   57982983	FORWARD:          0	MERGED:   17710637	TO_CACHE:   40272346

BTB TOTAL     ACCESS:   34206233  HIT:   34206220  MISS:         13  HIT %:        100  MISS %: 3.80048e-05   MPKI: 6.5e-05
BTB BRANCH_DIRECT_JUMP	ACCESS:    8271203  HIT:    8271199  MISS:          4
BTB BRANCH_INDIRECT	ACCESS:          0  HIT:          0  MISS:          0
BTB BRANCH_CONDITIONAL	ACCESS:   24431177  HIT:   24431169  MISS:          8
BTB BRANCH_DIRECT_CALL	ACCESS:     751927  HIT:     751926  MISS:          1
BTB BRANCH_INDIRECT_CALL	ACCESS:          0  HIT:          0  MISS:          0
BTB BRANCH_RETURN	ACCESS:     751926  HIT:     751926  MISS:          0
BTB BRANCH_OTHER ACCESS:          0  HIT:          0  MISS:          0

L2C TOTAL     ACCESS:    2716109  HIT:    2459708  MISS:     256401  HIT %:      90.56  MISS %:    9.44001   MPKI: 1.282
L2C LOAD      ACCESS:       2585  HIT:          0  MISS:       2585  HIT %:          0  MISS %:        100   MPKI: 0.012925
L2C DATA LOAD MPKI: 0.012925
L2C INSTRUCTION LOAD MPKI: 0
L2C RFO       ACCESS:      46996  HIT:          0  MISS:      46996  HIT %:          0  MISS %:        100   MPKI: 0.23498
L2C PREFETCH  ACCESS:     947203  HIT:     750054  MISS:     197149  HIT %:    79.1862  MISS %:    20.8138   MPKI: 0.985745
L2C DATA PREFETCH MPKI: 0.985745
L2C INSTRUCTION PREFETCH MPKI: 0
L2C WRITEBACK ACCESS:      46986  HIT:      37804  MISS:       9182  HIT %:     80.458  MISS %:     19.542   MPKI: 0.04591
L2C LOAD TRANSLATION ACCESS:       3856  HIT:       3762  MISS:         94  HIT %:    97.5622  MISS %:    2.43776   MPKI: 0.00047
L2C TRANSLATION FROM L1D PREFETCHER ACCESS:    1668483  HIT:    1668088  MISS:        395  HIT %:    99.9763  MISS %:  0.0236742   MPKI: 0.001975
L2C PREFETCH  REQUESTED:          0  ISSUED:          0  USEFUL:        395  USELESS:     196274
L2C USEFUL LOAD PREFETCHES:        395 PREFETCH ISSUED TO LOWER LEVEL:     197191  ACCURACY: 0.200313
L2C TIMELY PREFETCHES:        395 LATE PREFETCHES: 0 DROPPED PREFETCHES: 0
L2C PREFETCHES SAME FILL-ORIGIN LEVEL: 90617 DIFFERENT FILL-ORIGIN LEVEL: 0
L2C AVERAGE MISS LATENCY: 154.585 cycles
L2C RQ	ACCESS:    1721928	FORWARD:          0	MERGED:          0	TO_CACHE:    1721928
L2C WQ	ACCESS:      46991	FORWARD:          0	MERGED:          0	TO_CACHE:      46991
L2C PQ	ACCESS:     953132	FORWARD:          0	MERGED:          1	TO_CACHE:     953131

L2C Instructions Evicting Data 0
L2C Translations Evicting Data 481
L2C Data Evicting Data 245437
L2C Instructions Evicting Instructions 0
L2C Translations Evicting Instructions 0
L2C Data Evicting Instructions 0
L2C Instructions Evicting Translations 0
L2C Translations Evicting Translations 0
L2C Data Evicting Translations 463
L2C Dense regions hint from L2: 0
PSCL5 TOTAL     ACCESS:    1672339  HIT:    1672339  MISS:          0  HIT %:        100  MISS %:          0   MPKI: 0
PSCL5 LOAD TRANSLATION ACCESS:       3856  HIT:       3856  MISS:          0  HIT %:        100  MISS %:          0   MPKI: 0
PSCL5 TRANSLATION FROM L1D PREFETCHER ACCESS:    1668483  HIT:    1668483  MISS:          0  HIT %:        100  MISS %:          0   MPKI: 0
PSCL5 PREFETCH  REQUESTED:          0  ISSUED:          0  USEFUL:          0  USELESS:          0
PSCL5 USEFUL LOAD PREFETCHES:          0 PREFETCH ISSUED TO LOWER LEVEL:          0  ACCURACY: -nan
PSCL5 TIMELY PREFETCHES:          0 LATE PREFETCHES: 0 DROPPED PREFETCHES: 0
PSCL5 PREFETCHES SAME FILL-ORIGIN LEVEL: 0 DIFFERENT FILL-ORIGIN LEVEL: 0

PSCL4 TOTAL     ACCESS:    1672339  HIT:    1672339  MISS:          0  HIT %:        100  MISS %:          0   MPKI: 0
PSCL4 LOAD TRANSLATION ACCESS:       3856  HIT:       3856  MISS:          0  HIT %:        100  MISS %:          0   MPKI: 0
PSCL4 TRANSLATION FROM L1D PREFETCHER ACCESS:    1668483  HIT:    1668483  MISS:          0  HIT %:        100  MISS %:          0   MPKI: 0
PSCL4 PREFETCH  REQUESTED:          0  ISSUED:          0  USEFUL:          0  USELESS:          0
PSCL4 USEFUL LOAD PREFETCHES:          0 PREFETCH ISSUED TO LOWER LEVEL:          0  ACCURACY: -nan
PSCL4 TIMELY PREFETCHES:          0 LATE PREFETCHES: 0 DROPPED PREFETCHES: 0
PSCL4 PREFETCHES SAME FILL-ORIGIN LEVEL: 0 DIFFERENT FILL-ORIGIN LEVEL: 0

PSCL3 TOTAL     ACCESS:    1672339  HIT:    1672339  MISS:          0  HIT %:        100  MISS %:          0   MPKI: 0
PSCL3 LOAD TRANSLATION ACCESS:       3856  HIT:       3856  MISS:          0  HIT %:        100  MISS %:          0   MPKI: 0
PSCL3 TRANSLATION FROM L1D PREFETCHER ACCESS:    1668483  HIT:    1668483  MISS:          0  HIT %:        100  MISS %:          0   MPKI: 0
PSCL3 PREFETCH  REQUESTED:          0  ISSUED:          0  USEFUL:          0  USELESS:          0
PSCL3 USEFUL LOAD PREFETCHES:          0 PREFETCH ISSUED TO LOWER LEVEL:          0  ACCURACY: -nan
PSCL3 TIMELY PREFETCHES:          0 LATE PREFETCHES: 0 DROPPED PREFETCHES: 0
PSCL3 PREFETCHES SAME FILL-ORIGIN LEVEL: 0 DIFFERENT FILL-ORIGIN LEVEL: 0

PSCL2 TOTAL     ACCESS:    1668366  HIT:    1668359  MISS:          7  HIT %:    99.9996  MISS %: 0.000419572   MPKI: 3.5e-05
PSCL2 LOAD TRANSLATION ACCESS:       3856  HIT:       3849  MISS:          7  HIT %:    99.8185  MISS %:   0.181535   MPKI: 3.5e-05
PSCL2 TRANSLATION FROM L1D PREFETCHER ACCESS:    1664510  HIT:    1664510  MISS:          0  HIT %:        100  MISS %:          0   MPKI: 0
PSCL2 PREFETCH  REQUESTED:          0  ISSUED:          0  USEFUL:          0  USELESS:          0
PSCL2 USEFUL LOAD PREFETCHES:          0 PREFETCH ISSUED TO LOWER LEVEL:          0  ACCURACY: -nan
PSCL2 TIMELY PREFETCHES:          0 LATE PREFETCHES: 0 DROPPED PREFETCHES: 0
PSCL2 PREFETCHES SAME FILL-ORIGIN LEVEL: 0 DIFFERENT FILL-ORIGIN LEVEL: 0

LLC TOTAL     ACCESS:     294225  HIT:      43116  MISS:     251109  HIT %:    14.6541  MISS %:    85.3459   MPKI: 1.25554
LLC LOAD      ACCESS:       2585  HIT:          0  MISS:       2585  HIT %:          0  MISS %:        100   MPKI: 0.012925
LLC RFO       ACCESS:      46996  HIT:          0  MISS:      46996  HIT %:          0  MISS %:        100   MPKI: 0.23498
LLC PREFETCH  ACCESS:     197149  HIT:          0  MISS:     197149  HIT %:          0  MISS %:        100   MPKI: 0.985745
LLC WRITEBACK ACCESS:      47006  HIT:      43116  MISS:       3890  HIT %:    91.7245  MISS %:    8.27554   MPKI: 0.01945
LLC LOAD TRANSLATION ACCESS:         94  HIT:          0  MISS:         94  HIT %:          0  MISS %:        100   MPKI: 0.00047
LLC TRANSLATION FROM L1D PREFETCHER ACCESS:        395  HIT:          0  MISS:        395  HIT %:          0  MISS %:        100   MPKI: 0.001975
LLC PREFETCH  REQUESTED:          0  ISSUED:          0  USEFUL:          0  USELESS:     790250
LLC USEFUL LOAD PREFETCHES:          0 PREFETCH ISSUED TO LOWER LEVEL:     788695  ACCURACY: 0
LLC TIMELY PREFETCHES:          0 LATE PREFETCHES: 0 DROPPED PREFETCHES: 0
LLC PREFETCHES SAME FILL-ORIGIN LEVEL: 0 DIFFERENT FILL-ORIGIN LEVEL: 0
LLC AVERAGE MISS LATENCY: 481.98 cycles
LLC RQ	ACCESS:     200305	FORWARD:          0	MERGED:          0	TO_CACHE:     200305
LLC WQ	ACCESS:     189581	FORWARD:          0	MERGED:          0	TO_CACHE:     189581
LLC PQ	ACCESS:     788696	FORWARD:          0	MERGED:          0	TO_CACHE:     788696

LLC Dense regions hint to LLC: 0

RAW hits: 3027869
Loads Generated: 27069403
Loads sent to L1D: 24041534
Stores Generated: 9023125
Stores sent to L1D: 9023136
Major fault: 0 Minor fault: 4853
Allocated PAGES: 19412

DRAM Statistics
 CHANNEL 0
 RQ ROW_BUFFER_HIT:     659264  ROW_BUFFER_MISS:     329729
 DBUS_CONGESTED:       2433
 WQ ROW_BUFFER_HIT:      29651  ROW_BUFFER_MISS:     158630  FULL:          0

 AVG_CONGESTED_CYCLE: 6
 All warmup complete: 5
Channel 0 Bank busy for read cycles: 0
Channel 0 Bank busy for write cycles: 0
Channel 0
Rank 0
0banks busy for read cycles: 116873175
0banks busy for write cycles: 99711
1banks busy for read cycles: 27428276
1banks busy for write cycles: 12733581
2banks busy for read cycles: 11467370
2banks busy for write cycles: 3443946
3banks busy for read cycles: 3353730
3banks busy for write cycles: 1097823
4banks busy for read cycles: 2768216
4banks busy for write cycles: 686036
5banks busy for read cycles: 624285
5banks busy for write cycles: 295402
6banks busy for read cycles: 219083
6banks busy for write cycles: 149895
7banks busy for read cycles: 192477
7banks busy for write cycles: 104436
8banks busy for read cycles: 645552
8banks busy for write cycles: 128556

CPU 0 Branch Prediction Accuracy: 99.6255% MPKI: 1.14724 Average ROB Occupancy at Mispredict: 281.969
Branch types
NOT_BRANCH: 138729657 69.3621%
BRANCH_DIRECT_JUMP: 8271531 4.1356%
BRANCH_INDIRECT: 0 0%
BRANCH_CONDITIONAL: 51502617 25.7503%
BRANCH_DIRECT_CALL: 751957 0.375964%
BRANCH_INDIRECT_CALL: 0 0%
BRANCH_RETURN: 751956 0.375963%
BRANCH_OTHER: 0 0%


CPU 1 Branch Prediction Accuracy: 99.6257% MPKI: 1.14688 Average ROB Occupancy at Mispredict: 282.05
Branch types
NOT_BRANCH: 138724055 69.362%
BRANCH_DIRECT_JUMP: 8271196 4.1356%
BRANCH_INDIRECT: 0 0%
BRANCH_CONDITIONAL: 51500529 25.7503%
BRANCH_DIRECT_CALL: 751927 0.375963%
BRANCH_INDIRECT_CALL: 0 0%
BRANCH_RETURN: 751927 0.375963%
BRANCH_OTHER: 0 0%


CPU 2 Branch Prediction Accuracy: 99.6256% MPKI: 1.1471 Average ROB Occupancy at Mispredict: 281.994
Branch types
NOT_BRANCH: 138726089 69.3621%
BRANCH_DIRECT_JUMP: 8271317 4.1356%
BRANCH_INDIRECT: 0 0%
BRANCH_CONDITIONAL: 51501286 25.7503%
BRANCH_DIRECT_CALL: 751938 0.375964%
BRANCH_INDIRECT_CALL: 0 0%
BRANCH_RETURN: 751938 0.375964%
BRANCH_OTHER: 0 0%


CPU 3 Branch Prediction Accuracy: 99.6255% MPKI: 1.14724 Average ROB Occupancy at Mispredict: 281.969
Branch types
NOT_BRANCH: 138729770 69.3621%
BRANCH_DIRECT_JUMP: 8271537 4.1356%
BRANCH_INDIRECT: 0 0%
BRANCH_CONDITIONAL: 51502654 25.7503%
BRANCH_DIRECT_CALL: 751958 0.375964%
BRANCH_INDIRECT_CALL: 0 0%
BRANCH_RETURN: 751957 0.375963%
BRANCH_OTHER: 0 0%

DRAM PAGES: 1048576
Allocated PAGES: 19412
