
*** ChampSim Multicore Out-of-Order Simulator ***

Warmup Instructions: 50000000
Simulation Instructions: 200000000
Number of CPUs: 4
LLC sets: 8192
LLC ways: 16
Off-chip DRAM Size: 4096 MB Channels: 1 Width: 64-bit Data Rate: 6400 MT/s
CPU 0 runs ./traces/cs/cloud9_phase5_core0.trace.xz
.xz
CPU 1 runs ./traces/cs/cloud9_phase5_core1.trace.xz
.xz
CPU 2 runs ./traces/cs/cloud9_phase5_core2.trace.xz
.xz
CPU 3 runs ./traces/cs/cloud9_phase5_core3.trace.xz
.xz
BTB has LRU replacement policy
ITLB has LRU replacement policy
DTLB has LRU replacement policy
STLB has LRU replacement policy
L1I has LRU replacement policy
History Sets: 8
History Ways: 16
BERTI Size: 16
BERTI Stride Size: 8
L1D has LRU replacement policy
Initialize SRRIP state for L2C
Initialize DRRIP state for LLC
BTB has LRU replacement policy
ITLB has LRU replacement policy
DTLB has LRU replacement policy
STLB has LRU replacement policy
L1I has LRU replacement policy
History Sets: 8
History Ways: 16
BERTI Size: 16
BERTI Stride Size: 8
L1D has LRU replacement policy
Initialize SRRIP state for L2C
Initialize DRRIP state for LLC
BTB has LRU replacement policy
ITLB has LRU replacement policy
DTLB has LRU replacement policy
STLB has LRU replacement policy
L1I has LRU replacement policy
History Sets: 8
History Ways: 16
BERTI Size: 16
BERTI Stride Size: 8
L1D has LRU replacement policy
Initialize SRRIP state for L2C
Initialize DRRIP state for LLC
BTB has LRU replacement policy
ITLB has LRU replacement policy
DTLB has LRU replacement policy
STLB has LRU replacement policy
L1I has LRU replacement policy
History Sets: 8
History Ways: 16
BERTI Size: 16
BERTI Stride Size: 8
L1D has LRU replacement policy
Initialize SRRIP state for L2C
Initialize DRRIP state for LLC
UNIQUE_ASID[0] = €
UNIQUE_ASID[1] = 
Heartbeat CPU 0 instructions: 10000003 cycles: 3202392 heartbeat IPC: 3.12267 cumulative IPC: 3.12267 (Simulation time: 0 hr 1 min 48 sec) 
Heartbeat CPU 1 instructions: 10000002 cycles: 3343502 heartbeat IPC: 2.99088 cumulative IPC: 2.99088 (Simulation time: 0 hr 1 min 53 sec) 
Heartbeat CPU 2 instructions: 10000000 cycles: 3425835 heartbeat IPC: 2.919 cumulative IPC: 2.919 (Simulation time: 0 hr 1 min 56 sec) 
Heartbeat CPU 3 instructions: 10000003 cycles: 3446952 heartbeat IPC: 2.90111 cumulative IPC: 2.90111 (Simulation time: 0 hr 1 min 56 sec) 
Heartbeat CPU 0 instructions: 20000002 cycles: 6405863 heartbeat IPC: 3.12161 cumulative IPC: 3.12214 (Simulation time: 0 hr 3 min 32 sec) 
Heartbeat CPU 1 instructions: 20000002 cycles: 6669990 heartbeat IPC: 3.00617 cumulative IPC: 2.99851 (Simulation time: 0 hr 3 min 41 sec) 
Heartbeat CPU 3 instructions: 20000000 cycles: 6822638 heartbeat IPC: 2.96236 cumulative IPC: 2.93142 (Simulation time: 0 hr 3 min 46 sec) 
Heartbeat CPU 2 instructions: 20000001 cycles: 6850470 heartbeat IPC: 2.92002 cumulative IPC: 2.91951 (Simulation time: 0 hr 3 min 46 sec) 
Heartbeat CPU 0 instructions: 30000001 cycles: 9780116 heartbeat IPC: 2.96362 cumulative IPC: 3.06745 (Simulation time: 0 hr 5 min 18 sec) 
Heartbeat CPU 1 instructions: 30000000 cycles: 9994074 heartbeat IPC: 3.00835 cumulative IPC: 3.00178 (Simulation time: 0 hr 5 min 25 sec) 
Heartbeat CPU 2 instructions: 30000001 cycles: 10082729 heartbeat IPC: 3.09381 cumulative IPC: 2.97538 (Simulation time: 0 hr 5 min 28 sec) 
Heartbeat CPU 3 instructions: 30000001 cycles: 10187481 heartbeat IPC: 2.97191 cumulative IPC: 2.94479 (Simulation time: 0 hr 5 min 32 sec) 
Heartbeat CPU 0 instructions: 40000002 cycles: 13203406 heartbeat IPC: 2.92117 cumulative IPC: 3.02952 (Simulation time: 0 hr 7 min 9 sec) 
Heartbeat CPU 1 instructions: 40000003 cycles: 13300870 heartbeat IPC: 3.02408 cumulative IPC: 3.00732 (Simulation time: 0 hr 7 min 11 sec) 
Heartbeat CPU 2 instructions: 40000002 cycles: 13508721 heartbeat IPC: 2.91886 cumulative IPC: 2.96105 (Simulation time: 0 hr 7 min 17 sec) 
Heartbeat CPU 3 instructions: 40000001 cycles: 13527283 heartbeat IPC: 2.99419 cumulative IPC: 2.95699 (Simulation time: 0 hr 7 min 17 sec) 
Heartbeat CPU 0 instructions: 50000001 cycles: 16579315 heartbeat IPC: 2.96216 cumulative IPC: 3.01581 (Simulation time: 0 hr 8 min 48 sec) 
Heartbeat CPU 1 instructions: 50000002 cycles: 16622497 heartbeat IPC: 3.01057 cumulative IPC: 3.00797 (Simulation time: 0 hr 8 min 49 sec) 
Heartbeat CPU 3 instructions: 50000000 cycles: 16907265 heartbeat IPC: 2.9586 cumulative IPC: 2.95731 (Simulation time: 0 hr 8 min 59 sec) 
Heartbeat CPU 2 instructions: 50000001 cycles: 16917787 heartbeat IPC: 2.93335 cumulative IPC: 2.95547 (Simulation time: 0 hr 8 min 59 sec) 

Warmup complete CPU 0 instructions: 51043649 cycles: 16917787 (Simulation time: 0 hr 8 min 59 sec) 
Warmup complete CPU 1 instructions: 50864613 cycles: 16917787 (Simulation time: 0 hr 8 min 59 sec) 
Warmup complete CPU 2 instructions: 50000001 cycles: 16917787 (Simulation time: 0 hr 8 min 59 sec) 
Warmup complete CPU 3 instructions: 50022562 cycles: 16917786 (Simulation time: 0 hr 8 min 59 sec) 

Heartbeat CPU 0 instructions: 60000002 cycles: 28219017 heartbeat IPC: 0.859129 cumulative IPC: 0.792511 (Simulation time: 0 hr 12 min 9 sec) 
Heartbeat CPU 1 instructions: 60000000 cycles: 29992549 heartbeat IPC: 0.74794 cumulative IPC: 0.698704 (Simulation time: 0 hr 12 min 39 sec) 
Heartbeat CPU 3 instructions: 60000000 cycles: 32614815 heartbeat IPC: 0.636636 cumulative IPC: 0.635626 (Simulation time: 0 hr 13 min 18 sec) 
Heartbeat CPU 2 instructions: 60000001 cycles: 32797660 heartbeat IPC: 0.629728 cumulative IPC: 0.629728 (Simulation time: 0 hr 13 min 21 sec) 
Heartbeat CPU 0 instructions: 70000002 cycles: 41418882 heartbeat IPC: 0.757583 cumulative IPC: 0.773694 (Simulation time: 0 hr 15 min 33 sec) 
Heartbeat CPU 1 instructions: 70000000 cycles: 43414763 heartbeat IPC: 0.745034 cumulative IPC: 0.722172 (Simulation time: 0 hr 15 min 59 sec) 
Heartbeat CPU 3 instructions: 70000000 cycles: 47236406 heartbeat IPC: 0.68392 cumulative IPC: 0.658916 (Simulation time: 0 hr 16 min 50 sec) 
Heartbeat CPU 2 instructions: 70000002 cycles: 52577109 heartbeat IPC: 0.505575 cumulative IPC: 0.560863 (Simulation time: 0 hr 18 min 2 sec) 
Heartbeat CPU 1 instructions: 80000003 cycles: 57080617 heartbeat IPC: 0.731751 cumulative IPC: 0.725432 (Simulation time: 0 hr 18 min 54 sec) 
Heartbeat CPU 0 instructions: 80000000 cycles: 58593086 heartbeat IPC: 0.582268 cumulative IPC: 0.694808 (Simulation time: 0 hr 19 min 17 sec) 
Heartbeat CPU 3 instructions: 80000003 cycles: 62341219 heartbeat IPC: 0.662041 cumulative IPC: 0.659955 (Simulation time: 0 hr 20 min 14 sec) 
Heartbeat CPU 1 instructions: 90000003 cycles: 71718355 heartbeat IPC: 0.683166 cumulative IPC: 0.714142 (Simulation time: 0 hr 22 min 8 sec) 
Heartbeat CPU 0 instructions: 90000001 cycles: 74755783 heartbeat IPC: 0.618709 cumulative IPC: 0.673543 (Simulation time: 0 hr 22 min 48 sec) 
Heartbeat CPU 3 instructions: 90000000 cycles: 76909675 heartbeat IPC: 0.686414 cumulative IPC: 0.666381 (Simulation time: 0 hr 23 min 25 sec) 
Heartbeat CPU 2 instructions: 80000001 cycles: 83675777 heartbeat IPC: 0.321557 cumulative IPC: 0.449384 (Simulation time: 0 hr 25 min 3 sec) 
Heartbeat CPU 1 instructions: 100000002 cycles: 86060030 heartbeat IPC: 0.697269 cumulative IPC: 0.710642 (Simulation time: 0 hr 25 min 36 sec) 
Heartbeat CPU 0 instructions: 100000000 cycles: 88984923 heartbeat IPC: 0.702783 cumulative IPC: 0.679316 (Simulation time: 0 hr 26 min 16 sec) 
Heartbeat CPU 3 instructions: 100000001 cycles: 95070340 heartbeat IPC: 0.550641 cumulative IPC: 0.639486 (Simulation time: 0 hr 27 min 55 sec) 
Heartbeat CPU 2 instructions: 90000000 cycles: 99635235 heartbeat IPC: 0.626588 cumulative IPC: 0.483574 (Simulation time: 0 hr 28 min 54 sec) 
Heartbeat CPU 1 instructions: 110000000 cycles: 100147182 heartbeat IPC: 0.709867 cumulative IPC: 0.710511 (Simulation time: 0 hr 29 min 1 sec) 
Heartbeat CPU 0 instructions: 110000000 cycles: 101538506 heartbeat IPC: 0.796585 cumulative IPC: 0.696713 (Simulation time: 0 hr 29 min 18 sec) 
Heartbeat CPU 3 instructions: 110000000 cycles: 109765528 heartbeat IPC: 0.680495 cumulative IPC: 0.645976 (Simulation time: 0 hr 31 min 33 sec) 
Heartbeat CPU 1 instructions: 120000001 cycles: 113600588 heartbeat IPC: 0.743306 cumulative IPC: 0.715074 (Simulation time: 0 hr 32 min 28 sec) 
Heartbeat CPU 0 instructions: 120000002 cycles: 116422880 heartbeat IPC: 0.671846 cumulative IPC: 0.692993 (Simulation time: 0 hr 33 min 6 sec) 
Heartbeat CPU 2 instructions: 100000001 cycles: 117728287 heartbeat IPC: 0.552698 cumulative IPC: 0.49598 (Simulation time: 0 hr 33 min 24 sec) 
Heartbeat CPU 3 instructions: 120000002 cycles: 124447544 heartbeat IPC: 0.681105 cumulative IPC: 0.650773 (Simulation time: 0 hr 35 min 15 sec) 
Heartbeat CPU 1 instructions: 130000001 cycles: 127138086 heartbeat IPC: 0.738689 cumulative IPC: 0.717975 (Simulation time: 0 hr 35 min 53 sec) 
Heartbeat CPU 0 instructions: 130000003 cycles: 132321570 heartbeat IPC: 0.628983 cumulative IPC: 0.684175 (Simulation time: 0 hr 36 min 58 sec) 
Heartbeat CPU 2 instructions: 110000000 cycles: 133626902 heartbeat IPC: 0.628986 cumulative IPC: 0.514099 (Simulation time: 0 hr 37 min 13 sec) 
Heartbeat CPU 3 instructions: 130000001 cycles: 139202833 heartbeat IPC: 0.677723 cumulative IPC: 0.654025 (Simulation time: 0 hr 38 min 18 sec) 
Heartbeat CPU 1 instructions: 140000002 cycles: 141660176 heartbeat IPC: 0.688606 cumulative IPC: 0.714556 (Simulation time: 0 hr 38 min 47 sec) 
Heartbeat CPU 0 instructions: 140000003 cycles: 148304948 heartbeat IPC: 0.62565 cumulative IPC: 0.677055 (Simulation time: 0 hr 40 min 16 sec) 
Heartbeat CPU 3 instructions: 140000002 cycles: 153580879 heartbeat IPC: 0.695505 cumulative IPC: 0.658389 (Simulation time: 0 hr 41 min 19 sec) 
Heartbeat CPU 1 instructions: 150000001 cycles: 156078875 heartbeat IPC: 0.693544 cumulative IPC: 0.712379 (Simulation time: 0 hr 41 min 46 sec) 
Heartbeat CPU 0 instructions: 150000001 cycles: 161775408 heartbeat IPC: 0.742365 cumulative IPC: 0.683128 (Simulation time: 0 hr 43 min 3 sec) 
Heartbeat CPU 2 instructions: 120000000 cycles: 166346722 heartbeat IPC: 0.305625 cumulative IPC: 0.46845 (Simulation time: 0 hr 44 min 11 sec) 
Heartbeat CPU 1 instructions: 160000002 cycles: 170111078 heartbeat IPC: 0.712647 cumulative IPC: 0.712403 (Simulation time: 0 hr 45 min 8 sec) 
Heartbeat CPU 3 instructions: 150000003 cycles: 173063597 heartbeat IPC: 0.513275 cumulative IPC: 0.640283 (Simulation time: 0 hr 46 min 1 sec) 
Heartbeat CPU 0 instructions: 160000003 cycles: 174453835 heartbeat IPC: 0.788742 cumulative IPC: 0.691628 (Simulation time: 0 hr 46 min 26 sec) 
Heartbeat CPU 1 instructions: 170000000 cycles: 183621615 heartbeat IPC: 0.740163 cumulative IPC: 0.714653 (Simulation time: 0 hr 48 min 57 sec) 
Heartbeat CPU 2 instructions: 130000002 cycles: 185052443 heartbeat IPC: 0.534596 cumulative IPC: 0.475809 (Simulation time: 0 hr 49 min 20 sec) 
Heartbeat CPU 3 instructions: 160000000 cycles: 187781530 heartbeat IPC: 0.679443 cumulative IPC: 0.643656 (Simulation time: 0 hr 49 min 59 sec) 
Heartbeat CPU 0 instructions: 170000001 cycles: 190508316 heartbeat IPC: 0.622879 cumulative IPC: 0.68527 (Simulation time: 0 hr 50 min 34 sec) 
Heartbeat CPU 1 instructions: 180000000 cycles: 197450244 heartbeat IPC: 0.723137 cumulative IPC: 0.715303 (Simulation time: 0 hr 52 min 7 sec) 
Heartbeat CPU 2 instructions: 140000001 cycles: 201692225 heartbeat IPC: 0.600969 cumulative IPC: 0.48708 (Simulation time: 0 hr 53 min 19 sec) 
Heartbeat CPU 3 instructions: 170000001 cycles: 202460008 heartbeat IPC: 0.68127 cumulative IPC: 0.646631 (Simulation time: 0 hr 53 min 29 sec) 
Heartbeat CPU 0 instructions: 180000000 cycles: 206021390 heartbeat IPC: 0.644617 cumulative IPC: 0.681935 (Simulation time: 0 hr 54 min 9 sec) 
Heartbeat CPU 1 instructions: 190000000 cycles: 211919010 heartbeat IPC: 0.691144 cumulative IPC: 0.71351 (Simulation time: 0 hr 55 min 19 sec) 
Heartbeat CPU 3 instructions: 180000001 cycles: 217176565 heartbeat IPC: 0.679507 cumulative IPC: 0.649047 (Simulation time: 0 hr 56 min 27 sec) 
Heartbeat CPU 2 instructions: 150000000 cycles: 219039659 heartbeat IPC: 0.576454 cumulative IPC: 0.494751 (Simulation time: 0 hr 56 min 48 sec) 
Heartbeat CPU 0 instructions: 190000002 cycles: 221643552 heartbeat IPC: 0.640116 cumulative IPC: 0.678744 (Simulation time: 0 hr 57 min 20 sec) 
Heartbeat CPU 1 instructions: 200000000 cycles: 226094170 heartbeat IPC: 0.705459 cumulative IPC: 0.712965 (Simulation time: 0 hr 58 min 25 sec) 
Heartbeat CPU 3 instructions: 190000000 cycles: 232817049 heartbeat IPC: 0.639366 cumulative IPC: 0.648346 (Simulation time: 0 hr 59 min 54 sec) 
Heartbeat CPU 0 instructions: 200000003 cycles: 234231968 heartbeat IPC: 0.794381 cumulative IPC: 0.685442 (Simulation time: 1 hr 0 min 13 sec) 
Heartbeat CPU 2 instructions: 160000000 cycles: 234921244 heartbeat IPC: 0.62966 cumulative IPC: 0.504579 (Simulation time: 1 hr 0 min 25 sec) 
Heartbeat CPU 1 instructions: 210000003 cycles: 239633847 heartbeat IPC: 0.73857 cumulative IPC: 0.714521 (Simulation time: 1 hr 1 min 27 sec) 
Heartbeat CPU 0 instructions: 210000001 cycles: 246901628 heartbeat IPC: 0.789287 cumulative IPC: 0.691163 (Simulation time: 1 hr 2 min 51 sec) 
Heartbeat CPU 3 instructions: 200000002 cycles: 249700309 heartbeat IPC: 0.592303 cumulative IPC: 0.644281 (Simulation time: 1 hr 3 min 18 sec) 
Heartbeat CPU 1 instructions: 220000000 cycles: 253263841 heartbeat IPC: 0.733676 cumulative IPC: 0.715626 (Simulation time: 1 hr 4 min 5 sec) 
Heartbeat CPU 0 instructions: 220000000 cycles: 264173569 heartbeat IPC: 0.578974 cumulative IPC: 0.683326 (Simulation time: 1 hr 6 min 23 sec) 
Heartbeat CPU 3 instructions: 210000000 cycles: 264534137 heartbeat IPC: 0.674135 cumulative IPC: 0.64607 (Simulation time: 1 hr 6 min 27 sec) 
Heartbeat CPU 1 instructions: 230000003 cycles: 267633170 heartbeat IPC: 0.695927 cumulative IPC: 0.714497 (Simulation time: 1 hr 7 min 1 sec) 
Heartbeat CPU 2 instructions: 170000001 cycles: 269848036 heartbeat IPC: 0.286313 cumulative IPC: 0.474439 (Simulation time: 1 hr 7 min 32 sec) 
Heartbeat CPU 3 instructions: 220000000 cycles: 279299811 heartbeat IPC: 0.677246 cumulative IPC: 0.647824 (Simulation time: 1 hr 9 min 49 sec) 
Heartbeat CPU 0 instructions: 230000003 cycles: 279760550 heartbeat IPC: 0.641561 cumulative IPC: 0.680849 (Simulation time: 1 hr 9 min 55 sec) 
Heartbeat CPU 1 instructions: 240000001 cycles: 281977475 heartbeat IPC: 0.697141 cumulative IPC: 0.713558 (Simulation time: 1 hr 10 min 22 sec) 
Heartbeat CPU 2 instructions: 180000003 cycles: 285737073 heartbeat IPC: 0.629365 cumulative IPC: 0.483596 (Simulation time: 1 hr 11 min 8 sec) 
Heartbeat CPU 3 instructions: 230000002 cycles: 293778885 heartbeat IPC: 0.690652 cumulative IPC: 0.650064 (Simulation time: 1 hr 13 min 3 sec) 
Heartbeat CPU 0 instructions: 240000003 cycles: 294470708 heartbeat IPC: 0.679802 cumulative IPC: 0.680794 (Simulation time: 1 hr 13 min 16 sec) 
Heartbeat CPU 1 instructions: 250000000 cycles: 296079761 heartbeat IPC: 0.709105 cumulative IPC: 0.713333 (Simulation time: 1 hr 13 min 36 sec) 
Finished CPU 1 instructions: 200000002 cycles: 280320010 cumulative IPC: 0.71347 (Simulation time: 1 hr 13 min 50 sec) 
Heartbeat CPU 2 instructions: 190000000 cycles: 303871705 heartbeat IPC: 0.551431 cumulative IPC: 0.487883 (Simulation time: 1 hr 15 min 7 sec) 
Heartbeat CPU 0 instructions: 250000002 cycles: 307093357 heartbeat IPC: 0.792227 cumulative IPC: 0.685641 (Simulation time: 1 hr 15 min 47 sec) 
Finished CPU 0 instructions: 200000002 cycles: 291507369 cumulative IPC: 0.686089 (Simulation time: 1 hr 16 min 10 sec) 
Heartbeat CPU 1 instructions: 260000003 cycles: 309531530 heartbeat IPC: 0.743397 cumulative IPC: 0.714715 (Simulation time: 1 hr 16 min 30 sec) 
Heartbeat CPU 3 instructions: 240000001 cycles: 311621861 heartbeat IPC: 0.560445 cumulative IPC: 0.644638 (Simulation time: 1 hr 17 min 6 sec) 
Heartbeat CPU 2 instructions: 200000001 cycles: 319708926 heartbeat IPC: 0.631424 cumulative IPC: 0.495391 (Simulation time: 1 hr 19 min 29 sec) 
Heartbeat CPU 0 instructions: 260000000 cycles: 321071094 heartbeat IPC: 0.715423 cumulative IPC: 0.68701 (Simulation time: 1 hr 19 min 51 sec) 
Heartbeat CPU 1 instructions: 270000000 cycles: 323005772 heartbeat IPC: 0.742157 cumulative IPC: 0.715923 (Simulation time: 1 hr 20 min 21 sec) 
Heartbeat CPU 3 instructions: 250000000 cycles: 326505675 heartbeat IPC: 0.671871 cumulative IPC: 0.645947 (Simulation time: 1 hr 21 min 15 sec) 
Finished CPU 3 instructions: 200000000 cycles: 309620754 cumulative IPC: 0.645952 (Simulation time: 1 hr 21 min 16 sec) 
Heartbeat CPU 2 instructions: 210000001 cycles: 335654510 heartbeat IPC: 0.627133 cumulative IPC: 0.501982 (Simulation time: 1 hr 23 min 54 sec) 
Heartbeat CPU 0 instructions: 270000002 cycles: 337309259 heartbeat IPC: 0.615833 cumulative IPC: 0.683403 (Simulation time: 1 hr 24 min 21 sec) 
Heartbeat CPU 1 instructions: 280000000 cycles: 337393013 heartbeat IPC: 0.69506 cumulative IPC: 0.714986 (Simulation time: 1 hr 24 min 22 sec) 
Heartbeat CPU 3 instructions: 260000003 cycles: 341219127 heartbeat IPC: 0.67965 cumulative IPC: 0.647476 (Simulation time: 1 hr 25 min 17 sec) 
Heartbeat CPU 1 instructions: 290000001 cycles: 351801331 heartbeat IPC: 0.694044 cumulative IPC: 0.714085 (Simulation time: 1 hr 27 min 23 sec) 
Heartbeat CPU 0 instructions: 280000001 cycles: 353477487 heartbeat IPC: 0.618497 cumulative IPC: 0.680285 (Simulation time: 1 hr 27 min 42 sec) 
Heartbeat CPU 3 instructions: 270000001 cycles: 356409596 heartbeat IPC: 0.658307 cumulative IPC: 0.647961 (Simulation time: 1 hr 28 min 26 sec) 
Heartbeat CPU 1 instructions: 300000002 cycles: 365889523 heartbeat IPC: 0.709814 cumulative IPC: 0.713913 (Simulation time: 1 hr 30 min 29 sec) 
Heartbeat CPU 0 instructions: 290000002 cycles: 367239522 heartbeat IPC: 0.726637 cumulative IPC: 0.682105 (Simulation time: 1 hr 30 min 54 sec) 
Heartbeat CPU 2 instructions: 220000000 cycles: 370583201 heartbeat IPC: 0.286298 cumulative IPC: 0.48068 (Simulation time: 1 hr 31 min 52 sec) 
Heartbeat CPU 3 instructions: 280000002 cycles: 370745621 heartbeat IPC: 0.697544 cumulative IPC: 0.64997 (Simulation time: 1 hr 31 min 54 sec) 
Heartbeat CPU 1 instructions: 310000001 cycles: 379380954 heartbeat IPC: 0.741211 cumulative IPC: 0.714929 (Simulation time: 1 hr 33 min 55 sec) 
Heartbeat CPU 0 instructions: 300000001 cycles: 379784113 heartbeat IPC: 0.797156 cumulative IPC: 0.686083 (Simulation time: 1 hr 34 min 2 sec) 
Heartbeat CPU 2 instructions: 230000003 cycles: 386499607 heartbeat IPC: 0.628283 cumulative IPC: 0.487037 (Simulation time: 1 hr 35 min 53 sec) 
Heartbeat CPU 3 instructions: 290000003 cycles: 388674524 heartbeat IPC: 0.557759 cumulative IPC: 0.645523 (Simulation time: 1 hr 36 min 30 sec) 
Heartbeat CPU 1 instructions: 320000003 cycles: 392946526 heartbeat IPC: 0.73716 cumulative IPC: 0.715731 (Simulation time: 1 hr 37 min 36 sec) 
Heartbeat CPU 0 instructions: 310000000 cycles: 395442769 heartbeat IPC: 0.638624 cumulative IPC: 0.68412 (Simulation time: 1 hr 38 min 8 sec) 
Heartbeat CPU 3 instructions: 300000000 cycles: 403404643 heartbeat IPC: 0.678881 cumulative IPC: 0.646794 (Simulation time: 1 hr 40 min 25 sec) 
Heartbeat CPU 2 instructions: 240000000 cycles: 404648776 heartbeat IPC: 0.550989 cumulative IPC: 0.49003 (Simulation time: 1 hr 40 min 41 sec) 
Heartbeat CPU 1 instructions: 330000000 cycles: 407623888 heartbeat IPC: 0.681321 cumulative IPC: 0.714438 (Simulation time: 1 hr 41 min 20 sec) 
Heartbeat CPU 0 instructions: 320000000 cycles: 410964056 heartbeat IPC: 0.644276 cumulative IPC: 0.68255 (Simulation time: 1 hr 42 min 2 sec) 
Heartbeat CPU 3 instructions: 310000000 cycles: 418068281 heartbeat IPC: 0.681959 cumulative IPC: 0.64808 (Simulation time: 1 hr 43 min 38 sec) 
Heartbeat CPU 2 instructions: 250000000 cycles: 420465618 heartbeat IPC: 0.632237 cumulative IPC: 0.495604 (Simulation time: 1 hr 44 min 22 sec) 
Finished CPU 2 instructions: 200000000 cycles: 403547878 cumulative IPC: 0.495604 (Simulation time: 1 hr 44 min 22 sec) 

ChampSim completed all CPUs

Total Simulation Statistics (not including warmup)

CPU 0 cumulative IPC: 0.681293 instructions: 274934368 cycles: 403547878
ITLB TOTAL     ACCESS:   48035057  HIT:   35381333  MISS:   12653724  HIT %:    73.6573  MISS %:    26.3427   MPKI: 46.0245
ITLB LOAD      ACCESS:          0  HIT:          0  MISS:          0  HIT %:       -nan  MISS %:       -nan   MPKI: 0
ITLB RFO       ACCESS:          0  HIT:          0  MISS:          0  HIT %:       -nan  MISS %:       -nan   MPKI: 0
ITLB PREFETCH  ACCESS:          0  HIT:          0  MISS:          0  HIT %:       -nan  MISS %:       -nan   MPKI: 0
ITLB WRITEBACK ACCESS:          0  HIT:          0  MISS:          0  HIT %:       -nan  MISS %:       -nan   MPKI: 0
DTLB TOTAL     ACCESS:   32526029  HIT:   20197079  MISS:   12328950  HIT %:    62.0951  MISS %:    37.9049   MPKI: 44.8432
DTLB LOAD      ACCESS:          0  HIT:          0  MISS:          0  HIT %:       -nan  MISS %:       -nan   MPKI: 0
DTLB RFO       ACCESS:          0  HIT:          0  MISS:          0  HIT %:       -nan  MISS %:       -nan   MPKI: 0
DTLB PREFETCH  ACCESS:          0  HIT:          0  MISS:          0  HIT %:       -nan  MISS %:       -nan   MPKI: 0
DTLB WRITEBACK ACCESS:          0  HIT:          0  MISS:          0  HIT %:       -nan  MISS %:       -nan   MPKI: 0
STLB TOTAL     ACCESS:   25113262  HIT:    5449743  MISS:   19663519  HIT %:    21.7007  MISS %:    78.2993   MPKI: 71.5208
STLB LOAD      ACCESS:          0  HIT:          0  MISS:          0  HIT %:       -nan  MISS %:       -nan   MPKI: 0
STLB RFO       ACCESS:          0  HIT:          0  MISS:          0  HIT %:       -nan  MISS %:       -nan   MPKI: 0
STLB PREFETCH  ACCESS:          0  HIT:          0  MISS:          0  HIT %:       -nan  MISS %:       -nan   MPKI: 0
STLB WRITEBACK ACCESS:          0  HIT:          0  MISS:          0  HIT %:       -nan  MISS %:       -nan   MPKI: 0
L1D TOTAL     ACCESS:   43064967  HIT:   42343942  MISS:     721025  HIT %:    98.3257  MISS %:    1.67427   MPKI: 2.62253
L1D LOAD      ACCESS:   24445916  HIT:   23882375  MISS:     563541  HIT %:    97.6947  MISS %:    2.30526   MPKI: 2.04973
L1D RFO       ACCESS:   18490001  HIT:   18339658  MISS:     150343  HIT %:    99.1869  MISS %:   0.813104   MPKI: 0.546832
L1D PREFETCH  ACCESS:     129050  HIT:     121909  MISS:       7141  HIT %:    94.4665  MISS %:    5.53351   MPKI: 0.0259735
L1D WRITEBACK ACCESS:          0  HIT:          0  MISS:          0  HIT %:       -nan  MISS %:       -nan   MPKI: 0
L1I TOTAL     ACCESS:   60647457  HIT:   60318660  MISS:     328797  HIT %:    99.4579  MISS %:   0.542145   MPKI: 1.19591
L1I LOAD      ACCESS:   60647457  HIT:   60318660  MISS:     328797  HIT %:    99.4579  MISS %:   0.542145   MPKI: 1.19591
L1I RFO       ACCESS:          0  HIT:          0  MISS:          0  HIT %:       -nan  MISS %:       -nan   MPKI: 0
L1I PREFETCH  ACCESS:          0  HIT:          0  MISS:          0  HIT %:       -nan  MISS %:       -nan   MPKI: 0
L1I WRITEBACK ACCESS:          0  HIT:          0  MISS:          0  HIT %:       -nan  MISS %:       -nan   MPKI: 0
L2C TOTAL     ACCESS:   21614583  HIT:   21085313  MISS:     529270  HIT %:    97.5513  MISS %:    2.44867   MPKI: 1.92508
L2C LOAD      ACCESS:     891979  HIT:     523911  MISS:     368068  HIT %:    58.7358  MISS %:    41.2642   MPKI: 1.33875
L2C RFO       ACCESS:     150343  HIT:      68215  MISS:      82128  HIT %:    45.3729  MISS %:    54.6271   MPKI: 0.298719
L2C PREFETCH  ACCESS:     170020  HIT:     150007  MISS:      20013  HIT %:     88.229  MISS %:     11.771   MPKI: 0.0727919
L2C WRITEBACK ACCESS:     450572  HIT:     422225  MISS:      28347  HIT %:    93.7087  MISS %:    6.29134   MPKI: 0.103105
PSCL5 TOTAL     ACCESS:   19670632  HIT:   19670632  MISS:          0  HIT %:        100  MISS %:          0   MPKI: 0
PSCL5 LOAD      ACCESS:          0  HIT:          0  MISS:          0  HIT %:       -nan  MISS %:       -nan   MPKI: 0
PSCL5 RFO       ACCESS:          0  HIT:          0  MISS:          0  HIT %:       -nan  MISS %:       -nan   MPKI: 0
PSCL5 PREFETCH  ACCESS:          0  HIT:          0  MISS:          0  HIT %:       -nan  MISS %:       -nan   MPKI: 0
PSCL5 WRITEBACK ACCESS:          0  HIT:          0  MISS:          0  HIT %:       -nan  MISS %:       -nan   MPKI: 0
PSCL4 TOTAL     ACCESS:   10304600  HIT:   10304600  MISS:          0  HIT %:        100  MISS %:          0   MPKI: 0
PSCL4 LOAD      ACCESS:          0  HIT:          0  MISS:          0  HIT %:       -nan  MISS %:       -nan   MPKI: 0
PSCL4 RFO       ACCESS:          0  HIT:          0  MISS:          0  HIT %:       -nan  MISS %:       -nan   MPKI: 0
PSCL4 PREFETCH  ACCESS:          0  HIT:          0  MISS:          0  HIT %:       -nan  MISS %:       -nan   MPKI: 0
PSCL4 WRITEBACK ACCESS:          0  HIT:          0  MISS:          0  HIT %:       -nan  MISS %:       -nan   MPKI: 0
PSCL3 TOTAL     ACCESS:   19649519  HIT:   19649308  MISS:        211  HIT %:    99.9989  MISS %: 0.00107382   MPKI: 0.000767456
PSCL3 LOAD      ACCESS:          0  HIT:          0  MISS:          0  HIT %:       -nan  MISS %:       -nan   MPKI: 0
PSCL3 RFO       ACCESS:          0  HIT:          0  MISS:          0  HIT %:       -nan  MISS %:       -nan   MPKI: 0
PSCL3 PREFETCH  ACCESS:          0  HIT:          0  MISS:          0  HIT %:       -nan  MISS %:       -nan   MPKI: 0
PSCL3 WRITEBACK ACCESS:          0  HIT:          0  MISS:          0  HIT %:       -nan  MISS %:       -nan   MPKI: 0
PSCL2 TOTAL     ACCESS:   19670616  HIT:   19389805  MISS:     280811  HIT %:    98.5724  MISS %:    1.42757   MPKI: 1.02137
PSCL2 LOAD      ACCESS:          0  HIT:          0  MISS:          0  HIT %:       -nan  MISS %:       -nan   MPKI: 0
PSCL2 RFO       ACCESS:          0  HIT:          0  MISS:          0  HIT %:       -nan  MISS %:       -nan   MPKI: 0
PSCL2 PREFETCH  ACCESS:          0  HIT:          0  MISS:          0  HIT %:       -nan  MISS %:       -nan   MPKI: 0
PSCL2 WRITEBACK ACCESS:          0  HIT:          0  MISS:          0  HIT %:       -nan  MISS %:       -nan   MPKI: 0
LLC TOTAL     ACCESS:     790000  HIT:     392071  MISS:     397929  HIT %:    49.6292  MISS %:    50.3708   MPKI: 1.44736
LLC LOAD      ACCESS:     367606  HIT:     105282  MISS:     262324  HIT %:    28.6399  MISS %:    71.3601   MPKI: 0.954133
LLC RFO       ACCESS:      82086  HIT:       8791  MISS:      73295  HIT %:    10.7095  MISS %:    89.2905   MPKI: 0.266591
LLC PREFETCH  ACCESS:      20517  HIT:       5369  MISS:      15148  HIT %:    26.1685  MISS %:    73.8315   MPKI: 0.0550968
LLC WRITEBACK ACCESS:     289077  HIT:     249913  MISS:      39164  HIT %:    86.4521  MISS %:    13.5479   MPKI: 0.142449

RAW hits: 5465669
Loads Generated: 42696099
Loads sent to L1D: 37230430
Stores Generated: 19552533
Stores sent to L1D: 19552532

CPU 1 cumulative IPC: 0.714314 instructions: 288259999 cycles: 403547878
ITLB TOTAL     ACCESS:   54087191  HIT:   41242872  MISS:   12844319  HIT %:    76.2526  MISS %:    23.7474   MPKI: 44.5581
ITLB LOAD      ACCESS:          0  HIT:          0  MISS:          0  HIT %:       -nan  MISS %:       -nan   MPKI: 0
ITLB RFO       ACCESS:          0  HIT:          0  MISS:          0  HIT %:       -nan  MISS %:       -nan   MPKI: 0
ITLB PREFETCH  ACCESS:          0  HIT:          0  MISS:          0  HIT %:       -nan  MISS %:       -nan   MPKI: 0
ITLB WRITEBACK ACCESS:          0  HIT:          0  MISS:          0  HIT %:       -nan  MISS %:       -nan   MPKI: 0
DTLB TOTAL     ACCESS:   34357784  HIT:   19163012  MISS:   15194772  HIT %:    55.7749  MISS %:    44.2251   MPKI: 52.712
DTLB LOAD      ACCESS:          0  HIT:          0  MISS:          0  HIT %:       -nan  MISS %:       -nan   MPKI: 0
DTLB RFO       ACCESS:          0  HIT:          0  MISS:          0  HIT %:       -nan  MISS %:       -nan   MPKI: 0
DTLB PREFETCH  ACCESS:          0  HIT:          0  MISS:          0  HIT %:       -nan  MISS %:       -nan   MPKI: 0
DTLB WRITEBACK ACCESS:          0  HIT:          0  MISS:          0  HIT %:       -nan  MISS %:       -nan   MPKI: 0
STLB TOTAL     ACCESS:   30294008  HIT:    8011728  MISS:   22282280  HIT %:    26.4466  MISS %:    73.5534   MPKI: 77.2992
STLB LOAD      ACCESS:          0  HIT:          0  MISS:          0  HIT %:       -nan  MISS %:       -nan   MPKI: 0
STLB RFO       ACCESS:          0  HIT:          0  MISS:          0  HIT %:       -nan  MISS %:       -nan   MPKI: 0
STLB PREFETCH  ACCESS:          0  HIT:          0  MISS:          0  HIT %:       -nan  MISS %:       -nan   MPKI: 0
STLB WRITEBACK ACCESS:          0  HIT:          0  MISS:          0  HIT %:       -nan  MISS %:       -nan   MPKI: 0
L1D TOTAL     ACCESS:   46913306  HIT:   46178685  MISS:     734621  HIT %:    98.4341  MISS %:    1.56591   MPKI: 2.54847
L1D LOAD      ACCESS:   25762166  HIT:   25289670  MISS:     472496  HIT %:    98.1659  MISS %:    1.83407   MPKI: 1.63913
L1D RFO       ACCESS:   16470757  HIT:   16404736  MISS:      66021  HIT %:    99.5992  MISS %:   0.400838   MPKI: 0.229033
L1D PREFETCH  ACCESS:    4680383  HIT:    4484279  MISS:     196104  HIT %:    95.8101  MISS %:    4.18991   MPKI: 0.680303
L1D WRITEBACK ACCESS:          0  HIT:          0  MISS:          0  HIT %:       -nan  MISS %:       -nan   MPKI: 0
L1I TOTAL     ACCESS:   65891478  HIT:   65861512  MISS:      29966  HIT %:    99.9545  MISS %:  0.0454778   MPKI: 0.103955
L1I LOAD      ACCESS:   65891478  HIT:   65861512  MISS:      29966  HIT %:    99.9545  MISS %:  0.0454778   MPKI: 0.103955
L1I RFO       ACCESS:          0  HIT:          0  MISS:          0  HIT %:       -nan  MISS %:       -nan   MPKI: 0
L1I PREFETCH  ACCESS:          0  HIT:          0  MISS:          0  HIT %:       -nan  MISS %:       -nan   MPKI: 0
L1I WRITEBACK ACCESS:          0  HIT:          0  MISS:          0  HIT %:       -nan  MISS %:       -nan   MPKI: 0
L2C TOTAL     ACCESS:   25309111  HIT:   24654847  MISS:     654264  HIT %:    97.4149  MISS %:    2.58509   MPKI: 2.2697
L2C LOAD      ACCESS:     502283  HIT:     194572  MISS:     307711  HIT %:    38.7375  MISS %:    61.2625   MPKI: 1.06748
L2C RFO       ACCESS:      66021  HIT:      42427  MISS:      23594  HIT %:    64.2629  MISS %:    35.7371   MPKI: 0.0818497
L2C PREFETCH  ACCESS:    1945932  HIT:    1661374  MISS:     284558  HIT %:    85.3768  MISS %:    14.6232   MPKI: 0.987157
L2C WRITEBACK ACCESS:     393421  HIT:     372554  MISS:      20867  HIT %:     94.696  MISS %:    5.30399   MPKI: 0.0723895
PSCL5 TOTAL     ACCESS:   22367566  HIT:   22367566  MISS:          0  HIT %:        100  MISS %:          0   MPKI: 0
PSCL5 LOAD      ACCESS:          0  HIT:          0  MISS:          0  HIT %:       -nan  MISS %:       -nan   MPKI: 0
PSCL5 RFO       ACCESS:          0  HIT:          0  MISS:          0  HIT %:       -nan  MISS %:       -nan   MPKI: 0
PSCL5 PREFETCH  ACCESS:          0  HIT:          0  MISS:          0  HIT %:       -nan  MISS %:       -nan   MPKI: 0
PSCL5 WRITEBACK ACCESS:          0  HIT:          0  MISS:          0  HIT %:       -nan  MISS %:       -nan   MPKI: 0
PSCL4 TOTAL     ACCESS:   22367566  HIT:   22367566  MISS:          0  HIT %:        100  MISS %:          0   MPKI: 0
PSCL4 LOAD      ACCESS:          0  HIT:          0  MISS:          0  HIT %:       -nan  MISS %:       -nan   MPKI: 0
PSCL4 RFO       ACCESS:          0  HIT:          0  MISS:          0  HIT %:       -nan  MISS %:       -nan   MPKI: 0
PSCL4 PREFETCH  ACCESS:          0  HIT:          0  MISS:          0  HIT %:       -nan  MISS %:       -nan   MPKI: 0
PSCL4 WRITEBACK ACCESS:          0  HIT:          0  MISS:          0  HIT %:       -nan  MISS %:       -nan   MPKI: 0
PSCL3 TOTAL     ACCESS:   22366927  HIT:   22366767  MISS:        160  HIT %:    99.9993  MISS %: 0.000715342   MPKI: 0.000555054
PSCL3 LOAD      ACCESS:          0  HIT:          0  MISS:          0  HIT %:       -nan  MISS %:       -nan   MPKI: 0
PSCL3 RFO       ACCESS:          0  HIT:          0  MISS:          0  HIT %:       -nan  MISS %:       -nan   MPKI: 0
PSCL3 PREFETCH  ACCESS:          0  HIT:          0  MISS:          0  HIT %:       -nan  MISS %:       -nan   MPKI: 0
PSCL3 WRITEBACK ACCESS:          0  HIT:          0  MISS:          0  HIT %:       -nan  MISS %:       -nan   MPKI: 0
PSCL2 TOTAL     ACCESS:   22367565  HIT:   22333836  MISS:      33729  HIT %:    99.8492  MISS %:   0.150794   MPKI: 0.117009
PSCL2 LOAD      ACCESS:          0  HIT:          0  MISS:          0  HIT %:       -nan  MISS %:       -nan   MPKI: 0
PSCL2 RFO       ACCESS:          0  HIT:          0  MISS:          0  HIT %:       -nan  MISS %:       -nan   MPKI: 0
PSCL2 PREFETCH  ACCESS:          0  HIT:          0  MISS:          0  HIT %:       -nan  MISS %:       -nan   MPKI: 0
PSCL2 WRITEBACK ACCESS:          0  HIT:          0  MISS:          0  HIT %:       -nan  MISS %:       -nan   MPKI: 0
LLC TOTAL     ACCESS:     932911  HIT:     439744  MISS:     493167  HIT %:    47.1368  MISS %:    52.8632   MPKI: 1.71084
LLC LOAD      ACCESS:     306769  HIT:      88333  MISS:     218436  HIT %:    28.7946  MISS %:    71.2054   MPKI: 0.757774
LLC RFO       ACCESS:      23588  HIT:       4505  MISS:      19083  HIT %:    19.0987  MISS %:    80.9013   MPKI: 0.0662007
LLC PREFETCH  ACCESS:     285506  HIT:      62273  MISS:     223233  HIT %:    21.8115  MISS %:    78.1885   MPKI: 0.774415
LLC WRITEBACK ACCESS:     299514  HIT:     271997  MISS:      27517  HIT %:    90.8128  MISS %:    9.18722   MPKI: 0.095459

RAW hits: 9565362
Loads Generated: 48745151
Loads sent to L1D: 39179782
Stores Generated: 17909464
Stores sent to L1D: 17909463

CPU 2 cumulative IPC: 0.495604 instructions: 200000000 cycles: 403547878
ITLB TOTAL     ACCESS:   34818835  HIT:   25309290  MISS:    9509545  HIT %:    72.6885  MISS %:    27.3115   MPKI: 47.5477
ITLB LOAD      ACCESS:          0  HIT:          0  MISS:          0  HIT %:       -nan  MISS %:       -nan   MPKI: 0
ITLB RFO       ACCESS:          0  HIT:          0  MISS:          0  HIT %:       -nan  MISS %:       -nan   MPKI: 0
ITLB PREFETCH  ACCESS:          0  HIT:          0  MISS:          0  HIT %:       -nan  MISS %:       -nan   MPKI: 0
ITLB WRITEBACK ACCESS:          0  HIT:          0  MISS:          0  HIT %:       -nan  MISS %:       -nan   MPKI: 0
DTLB TOTAL     ACCESS:   23306878  HIT:   13540431  MISS:    9766447  HIT %:    58.0963  MISS %:    41.9037   MPKI: 48.8322
DTLB LOAD      ACCESS:          0  HIT:          0  MISS:          0  HIT %:       -nan  MISS %:       -nan   MPKI: 0
DTLB RFO       ACCESS:          0  HIT:          0  MISS:          0  HIT %:       -nan  MISS %:       -nan   MPKI: 0
DTLB PREFETCH  ACCESS:          0  HIT:          0  MISS:          0  HIT %:       -nan  MISS %:       -nan   MPKI: 0
DTLB WRITEBACK ACCESS:          0  HIT:          0  MISS:          0  HIT %:       -nan  MISS %:       -nan   MPKI: 0
STLB TOTAL     ACCESS:   19579696  HIT:    4414533  MISS:   15165163  HIT %:    22.5465  MISS %:    77.4535   MPKI: 75.8258
STLB LOAD      ACCESS:          0  HIT:          0  MISS:          0  HIT %:       -nan  MISS %:       -nan   MPKI: 0
STLB RFO       ACCESS:          0  HIT:          0  MISS:          0  HIT %:       -nan  MISS %:       -nan   MPKI: 0
STLB PREFETCH  ACCESS:          0  HIT:          0  MISS:          0  HIT %:       -nan  MISS %:       -nan   MPKI: 0
STLB WRITEBACK ACCESS:          0  HIT:          0  MISS:          0  HIT %:       -nan  MISS %:       -nan   MPKI: 0
L1D TOTAL     ACCESS:   32233745  HIT:   30875321  MISS:    1358424  HIT %:    95.7857  MISS %:    4.21429   MPKI: 6.79212
L1D LOAD      ACCESS:   18324843  HIT:   17143755  MISS:    1181088  HIT %:    93.5547  MISS %:    6.44528   MPKI: 5.90544
L1D RFO       ACCESS:   13585777  HIT:   13478744  MISS:     107033  HIT %:    99.2122  MISS %:   0.787831   MPKI: 0.535165
L1D PREFETCH  ACCESS:     323125  HIT:     252822  MISS:      70303  HIT %:    78.2428  MISS %:    21.7572   MPKI: 0.351515
L1D WRITEBACK ACCESS:          0  HIT:          0  MISS:          0  HIT %:       -nan  MISS %:       -nan   MPKI: 0
L1I TOTAL     ACCESS:   44247115  HIT:   43728271  MISS:     518844  HIT %:    98.8274  MISS %:    1.17261   MPKI: 2.59422
L1I LOAD      ACCESS:   44247115  HIT:   43728271  MISS:     518844  HIT %:    98.8274  MISS %:    1.17261   MPKI: 2.59422
L1I RFO       ACCESS:          0  HIT:          0  MISS:          0  HIT %:       -nan  MISS %:       -nan   MPKI: 0
L1I PREFETCH  ACCESS:          0  HIT:          0  MISS:          0  HIT %:       -nan  MISS %:       -nan   MPKI: 0
L1I WRITEBACK ACCESS:          0  HIT:          0  MISS:          0  HIT %:       -nan  MISS %:       -nan   MPKI: 0
L2C TOTAL     ACCESS:   18194298  HIT:   16655445  MISS:    1538853  HIT %:    91.5421  MISS %:    8.45789   MPKI: 7.69426
L2C LOAD      ACCESS:    1699282  HIT:     700920  MISS:     998362  HIT %:     41.248  MISS %:     58.752   MPKI: 4.99181
L2C RFO       ACCESS:     107025  HIT:      14151  MISS:      92874  HIT %:    13.2221  MISS %:    86.7779   MPKI: 0.46437
L2C PREFETCH  ACCESS:     518722  HIT:     269523  MISS:     249199  HIT %:     51.959  MISS %:     48.041   MPKI: 1.24599
L2C WRITEBACK ACCESS:     486266  HIT:     446398  MISS:      39868  HIT %:    91.8012  MISS %:     8.1988   MPKI: 0.19934
PSCL5 TOTAL     ACCESS:   15165756  HIT:   15165756  MISS:          0  HIT %:        100  MISS %:          0   MPKI: 0
PSCL5 LOAD      ACCESS:          0  HIT:          0  MISS:          0  HIT %:       -nan  MISS %:       -nan   MPKI: 0
PSCL5 RFO       ACCESS:          0  HIT:          0  MISS:          0  HIT %:       -nan  MISS %:       -nan   MPKI: 0
PSCL5 PREFETCH  ACCESS:          0  HIT:          0  MISS:          0  HIT %:       -nan  MISS %:       -nan   MPKI: 0
PSCL5 WRITEBACK ACCESS:          0  HIT:          0  MISS:          0  HIT %:       -nan  MISS %:       -nan   MPKI: 0
PSCL4 TOTAL     ACCESS:    7114311  HIT:    7114311  MISS:          0  HIT %:        100  MISS %:          0   MPKI: 0
PSCL4 LOAD      ACCESS:          0  HIT:          0  MISS:          0  HIT %:       -nan  MISS %:       -nan   MPKI: 0
PSCL4 RFO       ACCESS:          0  HIT:          0  MISS:          0  HIT %:       -nan  MISS %:       -nan   MPKI: 0
PSCL4 PREFETCH  ACCESS:          0  HIT:          0  MISS:          0  HIT %:       -nan  MISS %:       -nan   MPKI: 0
PSCL4 WRITEBACK ACCESS:          0  HIT:          0  MISS:          0  HIT %:       -nan  MISS %:       -nan   MPKI: 0
PSCL3 TOTAL     ACCESS:   15162495  HIT:   15162210  MISS:        285  HIT %:    99.9981  MISS %: 0.00187964   MPKI: 0.001425
PSCL3 LOAD      ACCESS:          0  HIT:          0  MISS:          0  HIT %:       -nan  MISS %:       -nan   MPKI: 0
PSCL3 RFO       ACCESS:          0  HIT:          0  MISS:          0  HIT %:       -nan  MISS %:       -nan   MPKI: 0
PSCL3 PREFETCH  ACCESS:          0  HIT:          0  MISS:          0  HIT %:       -nan  MISS %:       -nan   MPKI: 0
PSCL3 WRITEBACK ACCESS:          0  HIT:          0  MISS:          0  HIT %:       -nan  MISS %:       -nan   MPKI: 0
PSCL2 TOTAL     ACCESS:   15165674  HIT:   14948715  MISS:     216959  HIT %:    98.5694  MISS %:    1.43059   MPKI: 1.08479
PSCL2 LOAD      ACCESS:          0  HIT:          0  MISS:          0  HIT %:       -nan  MISS %:       -nan   MPKI: 0
PSCL2 RFO       ACCESS:          0  HIT:          0  MISS:          0  HIT %:       -nan  MISS %:       -nan   MPKI: 0
PSCL2 PREFETCH  ACCESS:          0  HIT:          0  MISS:          0  HIT %:       -nan  MISS %:       -nan   MPKI: 0
PSCL2 WRITEBACK ACCESS:          0  HIT:          0  MISS:          0  HIT %:       -nan  MISS %:       -nan   MPKI: 0
LLC TOTAL     ACCESS:    1928080  HIT:     711993  MISS:    1216087  HIT %:    36.9276  MISS %:    63.0724   MPKI: 6.08043
LLC LOAD      ACCESS:     997195  HIT:     141286  MISS:     855909  HIT %:    14.1683  MISS %:    85.8317   MPKI: 4.27954
LLC RFO       ACCESS:      92834  HIT:      11503  MISS:      81331  HIT %:    12.3909  MISS %:    87.6091   MPKI: 0.406655
LLC PREFETCH  ACCESS:     250406  HIT:     102104  MISS:     148302  HIT %:    40.7754  MISS %:    59.2246   MPKI: 0.74151
LLC WRITEBACK ACCESS:     429095  HIT:     417330  MISS:      11765  HIT %:    97.2582  MISS %:    2.74182   MPKI: 0.058825

RAW hits: 3206330
Loads Generated: 30701158
Loads sent to L1D: 27494827
Stores Generated: 14422998
Stores sent to L1D: 14422998

CPU 3 cumulative IPC: 0.648316 instructions: 261626628 cycles: 403547879
ITLB TOTAL     ACCESS:   49449411  HIT:   37652378  MISS:   11797033  HIT %:    76.1432  MISS %:    23.8568   MPKI: 45.0911
ITLB LOAD      ACCESS:          0  HIT:          0  MISS:          0  HIT %:       -nan  MISS %:       -nan   MPKI: 0
ITLB RFO       ACCESS:          0  HIT:          0  MISS:          0  HIT %:       -nan  MISS %:       -nan   MPKI: 0
ITLB PREFETCH  ACCESS:          0  HIT:          0  MISS:          0  HIT %:       -nan  MISS %:       -nan   MPKI: 0
ITLB WRITEBACK ACCESS:          0  HIT:          0  MISS:          0  HIT %:       -nan  MISS %:       -nan   MPKI: 0
DTLB TOTAL     ACCESS:   32351003  HIT:   17939191  MISS:   14411812  HIT %:    55.4517  MISS %:    44.5483   MPKI: 55.0854
DTLB LOAD      ACCESS:          0  HIT:          0  MISS:          0  HIT %:       -nan  MISS %:       -nan   MPKI: 0
DTLB RFO       ACCESS:          0  HIT:          0  MISS:          0  HIT %:       -nan  MISS %:       -nan   MPKI: 0
DTLB PREFETCH  ACCESS:          0  HIT:          0  MISS:          0  HIT %:       -nan  MISS %:       -nan   MPKI: 0
DTLB WRITEBACK ACCESS:          0  HIT:          0  MISS:          0  HIT %:       -nan  MISS %:       -nan   MPKI: 0
STLB TOTAL     ACCESS:   29266285  HIT:    7707615  MISS:   21558670  HIT %:    26.3362  MISS %:    73.6638   MPKI: 82.4024
STLB LOAD      ACCESS:          0  HIT:          0  MISS:          0  HIT %:       -nan  MISS %:       -nan   MPKI: 0
STLB RFO       ACCESS:          0  HIT:          0  MISS:          0  HIT %:       -nan  MISS %:       -nan   MPKI: 0
STLB PREFETCH  ACCESS:          0  HIT:          0  MISS:          0  HIT %:       -nan  MISS %:       -nan   MPKI: 0
STLB WRITEBACK ACCESS:          0  HIT:          0  MISS:          0  HIT %:       -nan  MISS %:       -nan   MPKI: 0
L1D TOTAL     ACCESS:   45528947  HIT:   44605090  MISS:     923857  HIT %:    97.9708  MISS %:    2.02916   MPKI: 3.5312
L1D LOAD      ACCESS:   23745414  HIT:   23086084  MISS:     659330  HIT %:    97.2233  MISS %:    2.77666   MPKI: 2.52012
L1D RFO       ACCESS:   14853693  HIT:   14820735  MISS:      32958  HIT %:    99.7781  MISS %:   0.221884   MPKI: 0.125973
L1D PREFETCH  ACCESS:    6929840  HIT:    6698271  MISS:     231569  HIT %:    96.6584  MISS %:    3.34162   MPKI: 0.885113
L1D WRITEBACK ACCESS:          0  HIT:          0  MISS:          0  HIT %:       -nan  MISS %:       -nan   MPKI: 0
L1I TOTAL     ACCESS:   60292492  HIT:   60288961  MISS:       3531  HIT %:    99.9941  MISS %: 0.00585645   MPKI: 0.0134963
L1I LOAD      ACCESS:   60292492  HIT:   60288961  MISS:       3531  HIT %:    99.9941  MISS %: 0.00585645   MPKI: 0.0134963
L1I RFO       ACCESS:          0  HIT:          0  MISS:          0  HIT %:       -nan  MISS %:       -nan   MPKI: 0
L1I PREFETCH  ACCESS:          0  HIT:          0  MISS:          0  HIT %:       -nan  MISS %:       -nan   MPKI: 0
L1I WRITEBACK ACCESS:          0  HIT:          0  MISS:          0  HIT %:       -nan  MISS %:       -nan   MPKI: 0
L2C TOTAL     ACCESS:   25803639  HIT:   24889487  MISS:     914152  HIT %:    96.4573  MISS %:    3.54273   MPKI: 3.49411
L2C LOAD      ACCESS:     662797  HIT:     170484  MISS:     492313  HIT %:    25.7219  MISS %:    74.2781   MPKI: 1.88174
L2C RFO       ACCESS:      32957  HIT:      10672  MISS:      22285  HIT %:    32.3816  MISS %:    67.6184   MPKI: 0.0851786
L2C PREFETCH  ACCESS:    2901880  HIT:    2568111  MISS:     333769  HIT %:    88.4982  MISS %:    11.5018   MPKI: 1.27575
L2C WRITEBACK ACCESS:     520567  HIT:     487838  MISS:      32729  HIT %:    93.7128  MISS %:    6.28718   MPKI: 0.125098
PSCL5 TOTAL     ACCESS:   21596494  HIT:   21596494  MISS:          0  HIT %:        100  MISS %:          0   MPKI: 0
PSCL5 LOAD      ACCESS:          0  HIT:          0  MISS:          0  HIT %:       -nan  MISS %:       -nan   MPKI: 0
PSCL5 RFO       ACCESS:          0  HIT:          0  MISS:          0  HIT %:       -nan  MISS %:       -nan   MPKI: 0
PSCL5 PREFETCH  ACCESS:          0  HIT:          0  MISS:          0  HIT %:       -nan  MISS %:       -nan   MPKI: 0
PSCL5 WRITEBACK ACCESS:          0  HIT:          0  MISS:          0  HIT %:       -nan  MISS %:       -nan   MPKI: 0
PSCL4 TOTAL     ACCESS:   21596494  HIT:   21596494  MISS:          0  HIT %:        100  MISS %:          0   MPKI: 0
PSCL4 LOAD      ACCESS:          0  HIT:          0  MISS:          0  HIT %:       -nan  MISS %:       -nan   MPKI: 0
PSCL4 RFO       ACCESS:          0  HIT:          0  MISS:          0  HIT %:       -nan  MISS %:       -nan   MPKI: 0
PSCL4 PREFETCH  ACCESS:          0  HIT:          0  MISS:          0  HIT %:       -nan  MISS %:       -nan   MPKI: 0
PSCL4 WRITEBACK ACCESS:          0  HIT:          0  MISS:          0  HIT %:       -nan  MISS %:       -nan   MPKI: 0
PSCL3 TOTAL     ACCESS:   21595696  HIT:   21595601  MISS:         95  HIT %:    99.9996  MISS %: 0.000439902   MPKI: 0.000363113
PSCL3 LOAD      ACCESS:          0  HIT:          0  MISS:          0  HIT %:       -nan  MISS %:       -nan   MPKI: 0
PSCL3 RFO       ACCESS:          0  HIT:          0  MISS:          0  HIT %:       -nan  MISS %:       -nan   MPKI: 0
PSCL3 PREFETCH  ACCESS:          0  HIT:          0  MISS:          0  HIT %:       -nan  MISS %:       -nan   MPKI: 0
PSCL3 WRITEBACK ACCESS:          0  HIT:          0  MISS:          0  HIT %:       -nan  MISS %:       -nan   MPKI: 0
PSCL2 TOTAL     ACCESS:   21596491  HIT:   21507644  MISS:      88847  HIT %:    99.5886  MISS %:   0.411396   MPKI: 0.339595
PSCL2 LOAD      ACCESS:          0  HIT:          0  MISS:          0  HIT %:       -nan  MISS %:       -nan   MPKI: 0
PSCL2 RFO       ACCESS:          0  HIT:          0  MISS:          0  HIT %:       -nan  MISS %:       -nan   MPKI: 0
PSCL2 PREFETCH  ACCESS:          0  HIT:          0  MISS:          0  HIT %:       -nan  MISS %:       -nan   MPKI: 0
PSCL2 WRITEBACK ACCESS:          0  HIT:          0  MISS:          0  HIT %:       -nan  MISS %:       -nan   MPKI: 0
LLC TOTAL     ACCESS:    1340014  HIT:     722460  MISS:     617554  HIT %:    53.9144  MISS %:    46.0856   MPKI: 2.36044
LLC LOAD      ACCESS:     491686  HIT:     159932  MISS:     331754  HIT %:    32.5273  MISS %:    67.4727   MPKI: 1.26804
LLC RFO       ACCESS:      22285  HIT:       9369  MISS:      12916  HIT %:    42.0417  MISS %:    57.9583   MPKI: 0.0493681
LLC PREFETCH  ACCESS:     334396  HIT:      83058  MISS:     251338  HIT %:    24.8382  MISS %:    75.1618   MPKI: 0.960674
LLC WRITEBACK ACCESS:     458591  HIT:     440751  MISS:      17840  HIT %:    96.1098  MISS %:    3.89018   MPKI: 0.0681888

RAW hits: 8132881
Loads Generated: 44260698
Loads sent to L1D: 36127816
Stores Generated: 16086361
Stores sent to L1D: 16086362

Region of Interest Statistics

CPU 0 cumulative IPC: 0.686089 instructions: 200000002 cycles: 291507369
ITLB TOTAL     ACCESS:   34940739  HIT:   25803639  MISS:    9137100  HIT %:    73.8497  MISS %:    26.1503   MPKI: 45.6855
ITLB LOAD TRANSLATION ACCESS:   34940739  HIT:   25803639  MISS:    9137100  HIT %:    73.8497  MISS %:    26.1503   MPKI: 45.6855
ITLB PREFETCH  REQUESTED:          0  ISSUED:          0  USEFUL:          0  USELESS:          0
ITLB USEFUL LOAD PREFETCHES:          0 PREFETCH ISSUED TO LOWER LEVEL:          0  ACCURACY: -nan
ITLB TIMELY PREFETCHES:          0 LATE PREFETCHES: 0 DROPPED PREFETCHES: 0
ITLB PREFETCHES SAME FILL-ORIGIN LEVEL: 0 DIFFERENT FILL-ORIGIN LEVEL: 0
ITLB AVERAGE MISS LATENCY: 46.531 cycles
ITLB RQ	ACCESS:   60753798	FORWARD:          0	MERGED:    7947527	TO_CACHE:   52806271

DTLB TOTAL     ACCESS:   23661422  HIT:   14766162  MISS:    8895260  HIT %:    62.4061  MISS %:    37.5939   MPKI: 44.4763
DTLB LOAD TRANSLATION ACCESS:   23661422  HIT:   14766162  MISS:    8895260  HIT %:    62.4061  MISS %:    37.5939   MPKI: 44.4763
DTLB PREFETCH  REQUESTED:          0  ISSUED:          0  USEFUL:          0  USELESS:          0
DTLB USEFUL LOAD PREFETCHES:          0 PREFETCH ISSUED TO LOWER LEVEL:          0  ACCURACY: -nan
DTLB TIMELY PREFETCHES:          0 LATE PREFETCHES: 0 DROPPED PREFETCHES: 0
DTLB PREFETCHES SAME FILL-ORIGIN LEVEL: 0 DIFFERENT FILL-ORIGIN LEVEL: 0
DTLB AVERAGE MISS LATENCY: 42.439 cycles
DTLB RQ	ACCESS:   43374967	FORWARD:          0	MERGED:    9115414	TO_CACHE:   34259553

STLB TOTAL     ACCESS:   18130113  HIT:    3944816  MISS:   14185297  HIT %:    21.7584  MISS %:    78.2416   MPKI: 70.9265
STLB LOAD TRANSLATION ACCESS:   18032360  HIT:    3852434  MISS:   14179926  HIT %:     21.364  MISS %:     78.636   MPKI: 70.8996
STLB TRANSLATION FROM L1D PREFETCHER ACCESS:      97753  HIT:      92382  MISS:       5371  HIT %:    94.5055  MISS %:    5.49446   MPKI: 0.026855
STLB PREFETCH  REQUESTED:          0  ISSUED:          0  USEFUL:       4825  USELESS:       2530
STLB USEFUL LOAD PREFETCHES:       4825 PREFETCH ISSUED TO LOWER LEVEL:          0  ACCURACY: inf
STLB TIMELY PREFETCHES:       4825 LATE PREFETCHES: 0 DROPPED PREFETCHES: 7112
STLB PREFETCHES SAME FILL-ORIGIN LEVEL: 0 DIFFERENT FILL-ORIGIN LEVEL: 0
STLB AVERAGE MISS LATENCY: 40.6753 cycles
STLB RQ	ACCESS:   25294772	FORWARD:          0	MERGED:     174173	TO_CACHE:   25120599

STLB Hit, L1D data hit: 0
STLB Hit, L2C data hit: 0
STLB Hit, LLC data hit: 0
STLB Hit, LLC data miss: 0
STLB STLB hints to L2: 0
L1D TOTAL     ACCESS:   31264959  HIT:   30751681  MISS:     513278  HIT %:    98.3583  MISS %:     1.6417   MPKI: 2.56639
L1D LOAD      ACCESS:   17734003  HIT:   17334376  MISS:     399627  HIT %:    97.7465  MISS %:    2.25345   MPKI: 1.99813
L1D RFO       ACCESS:   13435193  HIT:   13326702  MISS:     108491  HIT %:    99.1925  MISS %:   0.807514   MPKI: 0.542455
L1D PREFETCH  ACCESS:      95763  HIT:      90603  MISS:       5160  HIT %:    94.6117  MISS %:     5.3883   MPKI: 0.0258
L1D PREFETCH  REQUESTED:     646934  ISSUED:     645953  USEFUL:       6350  USELESS:        791
L1D USEFUL LOAD PREFETCHES:       6350 PREFETCH ISSUED TO LOWER LEVEL:     177166  ACCURACY: 3.58421
L1D TIMELY PREFETCHES:       6350 LATE PREFETCHES: 349 DROPPED PREFETCHES: 10141
L1D PREFETCHES SAME FILL-ORIGIN LEVEL: 7490 DIFFERENT FILL-ORIGIN LEVEL: 169676
L1D AVERAGE MISS LATENCY: 165.821 cycles
L1D RQ	ACCESS:   37230430	FORWARD:          0	MERGED:   12533691	TO_CACHE:   24486833
L1D WQ	ACCESS:   19552532	FORWARD:     210165	MERGED:     664398	TO_CACHE:   18888134
L1D PQ	ACCESS:     333857	FORWARD:          0	MERGED:      21502	TO_CACHE:     312096

L1D UNIQUE REGIONS ACCESSED: 0
L1D REGIONS CONFLICTS: 0
L1D Cross Page Prefetch Requests: 118769
L1D Same Page Prefetch Requests: 320307
L1D ROI Sum of L1D PQ occupancy: 5199335
L1D PREFETCHES PUSHED FROM L2C: 0
L1I TOTAL     ACCESS:   44091791  HIT:   43864424  MISS:     227367  HIT %:    99.4843  MISS %:   0.515667   MPKI: 1.13683
L1I LOAD      ACCESS:   44091791  HIT:   43864424  MISS:     227367  HIT %:    99.4843  MISS %:   0.515667   MPKI: 1.13683
L1I PREFETCH  REQUESTED:          0  ISSUED:          0  USEFUL:          0  USELESS:          0
L1I USEFUL LOAD PREFETCHES:          0 PREFETCH ISSUED TO LOWER LEVEL:          0  ACCURACY: -nan
L1I TIMELY PREFETCHES:          0 LATE PREFETCHES: 0 DROPPED PREFETCHES: 0
L1I PREFETCHES SAME FILL-ORIGIN LEVEL: 0 DIFFERENT FILL-ORIGIN LEVEL: 0
L1I AVERAGE MISS LATENCY: 30.1964 cycles
L1I RQ	ACCESS:  114175176	FORWARD:          0	MERGED:   53421378	TO_CACHE:   60753798

BTB BRANCH_DIRECT_JUMP	ACCESS:          0  HIT:          0  MISS:          0
BTB BRANCH_INDIRECT	ACCESS:          0  HIT:          0  MISS:          0
BTB BRANCH_CONDITIONAL	ACCESS:          0  HIT:          0  MISS:          0
BTB BRANCH_DIRECT_CALL	ACCESS:          0  HIT:          0  MISS:          0
BTB BRANCH_INDIRECT_CALL	ACCESS:          0  HIT:          0  MISS:          0
BTB BRANCH_RETURN	ACCESS:          0  HIT:          0  MISS:          0
BTB BRANCH_OTHER ACCESS:          0  HIT:          0  MISS:          0

L2C TOTAL     ACCESS:   15569450  HIT:   15194933  MISS:     374517  HIT %:    97.5945  MISS %:    2.40546   MPKI: 1.87258
L2C LOAD      ACCESS:     626730  HIT:     366622  MISS:     260108  HIT %:    58.4976  MISS %:    41.5024   MPKI: 1.30054
L2C DATA LOAD MPKI: 1.23427
L2C INSTRUCTION LOAD MPKI: 0.066265
L2C RFO       ACCESS:     108491  HIT:      50750  MISS:      57741  HIT %:    46.7781  MISS %:    53.2219   MPKI: 0.288705
L2C PREFETCH  ACCESS:     126226  HIT:     111382  MISS:      14844  HIT %:    88.2401  MISS %:    11.7599   MPKI: 0.07422
L2C DATA PREFETCH MPKI: 0.07422
L2C INSTRUCTION PREFETCH MPKI: 0
L2C WRITEBACK ACCESS:     319537  HIT:     299514  MISS:      20023  HIT %:    93.7337  MISS %:    6.26625   MPKI: 0.100115
L2C LOAD TRANSLATION ACCESS:   14377698  HIT:   14355936  MISS:      21762  HIT %:    99.8486  MISS %:   0.151359   MPKI: 0.10881
L2C TRANSLATION FROM L1D PREFETCHER ACCESS:      10768  HIT:      10729  MISS:         39  HIT %:    99.6378  MISS %:   0.362184   MPKI: 0.000195
L2C PREFETCH  REQUESTED:          0  ISSUED:          0  USEFUL:       6059  USELESS:      14240
L2C USEFUL LOAD PREFETCHES:       6059 PREFETCH ISSUED TO LOWER LEVEL:      20517  ACCURACY: 29.5316
L2C TIMELY PREFETCHES:       6059 LATE PREFETCHES: 504 DROPPED PREFETCHES: 0
L2C PREFETCHES SAME FILL-ORIGIN LEVEL: 18753 DIFFERENT FILL-ORIGIN LEVEL: 0
L2C AVERAGE MISS LATENCY: 226.028 cycles
L2C RQ	ACCESS:   20994002	FORWARD:          0	MERGED:          0	TO_CACHE:   20993992
L2C WQ	ACCESS:     450572	FORWARD:         10	MERGED:          0	TO_CACHE:     450572
L2C PQ	ACCESS:     177124	FORWARD:          0	MERGED:        197	TO_CACHE:     176927

L2C Instructions Evicting Data 16450
L2C Translations Evicting Data 28067
L2C Data Evicting Data 409847
L2C Instructions Evicting Instructions 849
L2C Translations Evicting Instructions 1110
L2C Data Evicting Instructions 15523
L2C Instructions Evicting Translations 1146
L2C Translations Evicting Translations 1535
L2C Data Evicting Translations 26374
L2C Dense regions hint from L2: 0
PSCL5 TOTAL     ACCESS:   14190670  HIT:   14190670  MISS:          0  HIT %:        100  MISS %:          0   MPKI: 0
PSCL5 LOAD TRANSLATION ACCESS:   14179928  HIT:   14179928  MISS:          0  HIT %:        100  MISS %:          0   MPKI: 0
PSCL5 TRANSLATION FROM L1D PREFETCHER ACCESS:      10742  HIT:      10742  MISS:          0  HIT %:        100  MISS %:          0   MPKI: 0
PSCL5 PREFETCH  REQUESTED:          0  ISSUED:          0  USEFUL:          0  USELESS:          0
PSCL5 USEFUL LOAD PREFETCHES:          0 PREFETCH ISSUED TO LOWER LEVEL:          0  ACCURACY: -nan
PSCL5 TIMELY PREFETCHES:          0 LATE PREFETCHES: 0 DROPPED PREFETCHES: 0
PSCL5 PREFETCHES SAME FILL-ORIGIN LEVEL: 0 DIFFERENT FILL-ORIGIN LEVEL: 0

PSCL4 TOTAL     ACCESS:    7477546  HIT:    7477546  MISS:          0  HIT %:        100  MISS %:          0   MPKI: 0
PSCL4 LOAD TRANSLATION ACCESS:    7468182  HIT:    7468182  MISS:          0  HIT %:        100  MISS %:          0   MPKI: 0
PSCL4 TRANSLATION FROM L1D PREFETCHER ACCESS:       9364  HIT:       9364  MISS:          0  HIT %:        100  MISS %:          0   MPKI: 0
PSCL4 PREFETCH  REQUESTED:          0  ISSUED:          0  USEFUL:          0  USELESS:          0
PSCL4 USEFUL LOAD PREFETCHES:          0 PREFETCH ISSUED TO LOWER LEVEL:          0  ACCURACY: -nan
PSCL4 TIMELY PREFETCHES:          0 LATE PREFETCHES: 0 DROPPED PREFETCHES: 0
PSCL4 PREFETCHES SAME FILL-ORIGIN LEVEL: 0 DIFFERENT FILL-ORIGIN LEVEL: 0

PSCL3 TOTAL     ACCESS:   14173201  HIT:   14173052  MISS:        149  HIT %:    99.9989  MISS %: 0.00105128   MPKI: 0.000745
PSCL3 LOAD TRANSLATION ACCESS:   14162460  HIT:   14162311  MISS:        149  HIT %:    99.9989  MISS %: 0.00105208   MPKI: 0.000745
PSCL3 TRANSLATION FROM L1D PREFETCHER ACCESS:      10741  HIT:      10741  MISS:          0  HIT %:        100  MISS %:          0   MPKI: 0
PSCL3 PREFETCH  REQUESTED:          0  ISSUED:          0  USEFUL:          0  USELESS:          0
PSCL3 USEFUL LOAD PREFETCHES:          0 PREFETCH ISSUED TO LOWER LEVEL:          0  ACCURACY: -nan
PSCL3 TIMELY PREFETCHES:          0 LATE PREFETCHES: 0 DROPPED PREFETCHES: 0
PSCL3 PREFETCHES SAME FILL-ORIGIN LEVEL: 0 DIFFERENT FILL-ORIGIN LEVEL: 0

PSCL2 TOTAL     ACCESS:   14190661  HIT:   13993022  MISS:     197639  HIT %:    98.6073  MISS %:    1.39274   MPKI: 0.988195
PSCL2 LOAD TRANSLATION ACCESS:   14179945  HIT:   13982306  MISS:     197639  HIT %:    98.6062  MISS %:    1.39379   MPKI: 0.988195
PSCL2 TRANSLATION FROM L1D PREFETCHER ACCESS:      10716  HIT:      10716  MISS:          0  HIT %:        100  MISS %:          0   MPKI: 0
PSCL2 PREFETCH  REQUESTED:          0  ISSUED:          0  USEFUL:          0  USELESS:          0
PSCL2 USEFUL LOAD PREFETCHES:          0 PREFETCH ISSUED TO LOWER LEVEL:          0  ACCURACY: -nan
PSCL2 TIMELY PREFETCHES:          0 LATE PREFETCHES: 0 DROPPED PREFETCHES: 0
PSCL2 PREFETCHES SAME FILL-ORIGIN LEVEL: 0 DIFFERENT FILL-ORIGIN LEVEL: 0

LLC TOTAL     ACCESS:     558561  HIT:     276179  MISS:     282382  HIT %:    49.4447  MISS %:    50.5553   MPKI: 1.41191
LLC LOAD      ACCESS:     259794  HIT:      73644  MISS:     186150  HIT %:    28.3471  MISS %:    71.6529   MPKI: 0.93075
LLC RFO       ACCESS:      57707  HIT:       6378  MISS:      51329  HIT %:    11.0524  MISS %:    88.9476   MPKI: 0.256645
LLC PREFETCH  ACCESS:      15192  HIT:       3953  MISS:      11239  HIT %:    26.0203  MISS %:    73.9797   MPKI: 0.056195
LLC WRITEBACK ACCESS:     204067  HIT:     176151  MISS:      27916  HIT %:    86.3202  MISS %:    13.6798   MPKI: 0.13958
LLC LOAD TRANSLATION ACCESS:      21762  HIT:      16036  MISS:       5726  HIT %:    73.6881  MISS %:    26.3119   MPKI: 0.02863
LLC TRANSLATION FROM L1D PREFETCHER ACCESS:         39  HIT:         17  MISS:         22  HIT %:    43.5897  MISS %:    56.4103   MPKI: 0.00011
LLC PREFETCH  REQUESTED:          0  ISSUED:          0  USEFUL:      44261  USELESS:     586070
LLC USEFUL LOAD PREFETCHES:      44261 PREFETCH ISSUED TO LOWER LEVEL:     638021  ACCURACY: 6.93723
LLC TIMELY PREFETCHES:      44261 LATE PREFETCHES: 0 DROPPED PREFETCHES: 0
LLC PREFETCHES SAME FILL-ORIGIN LEVEL: 0 DIFFERENT FILL-ORIGIN LEVEL: 0
LLC AVERAGE MISS LATENCY: 1805.84 cycles
LLC RQ	ACCESS:    2623903	FORWARD:          0	MERGED:          0	TO_CACHE:    2623903
LLC WQ	ACCESS:    1476277	FORWARD:          0	MERGED:          0	TO_CACHE:    1476277
LLC PQ	ACCESS:     890825	FORWARD:          0	MERGED:          0	TO_CACHE:     890825

LLC Dense regions hint to LLC: 0

RAW hits: 4036070
Loads Generated: 31081012
Loads sent to L1D: 27044940
Stores Generated: 14205224
Stores sent to L1D: 14205226
Major fault: 0 Minor fault: 5344
Allocated PAGES: 84331

CPU 1 cumulative IPC: 0.71347 instructions: 200000002 cycles: 280320010
ITLB TOTAL     ACCESS:   37542560  HIT:   28634438  MISS:    8908122  HIT %:    76.2719  MISS %:    23.7281   MPKI: 44.5406
ITLB LOAD TRANSLATION ACCESS:   37542560  HIT:   28634438  MISS:    8908122  HIT %:    76.2719  MISS %:    23.7281   MPKI: 44.5406
ITLB PREFETCH  REQUESTED:          0  ISSUED:          0  USEFUL:          0  USELESS:          0
ITLB USEFUL LOAD PREFETCHES:          0 PREFETCH ISSUED TO LOWER LEVEL:          0  ACCURACY: -nan
ITLB TIMELY PREFETCHES:          0 LATE PREFETCHES: 0 DROPPED PREFETCHES: 0
ITLB PREFETCHES SAME FILL-ORIGIN LEVEL: 0 DIFFERENT FILL-ORIGIN LEVEL: 0
ITLB AVERAGE MISS LATENCY: 48.8145 cycles
ITLB RQ	ACCESS:   65900507	FORWARD:          0	MERGED:    8077698	TO_CACHE:   57822809

DTLB TOTAL     ACCESS:   23850005  HIT:   13300736  MISS:   10549269  HIT %:    55.7683  MISS %:    44.2317   MPKI: 52.7463
DTLB LOAD TRANSLATION ACCESS:   23850005  HIT:   13300736  MISS:   10549269  HIT %:    55.7683  MISS %:    44.2317   MPKI: 52.7463
DTLB PREFETCH  REQUESTED:          0  ISSUED:          0  USEFUL:          0  USELESS:          0
DTLB USEFUL LOAD PREFETCHES:          0 PREFETCH ISSUED TO LOWER LEVEL:          0  ACCURACY: -nan
DTLB TIMELY PREFETCHES:          0 LATE PREFETCHES: 0 DROPPED PREFETCHES: 0
DTLB PREFETCHES SAME FILL-ORIGIN LEVEL: 0 DIFFERENT FILL-ORIGIN LEVEL: 0
DTLB AVERAGE MISS LATENCY: 45.4115 cycles
DTLB RQ	ACCESS:   42406075	FORWARD:          0	MERGED:    5921553	TO_CACHE:   36484522

STLB TOTAL     ACCESS:   21022413  HIT:    5565826  MISS:   15456587  HIT %:    26.4757  MISS %:    73.5243   MPKI: 77.2829
STLB LOAD TRANSLATION ACCESS:   19457391  HIT:    4416115  MISS:   15041276  HIT %:    22.6963  MISS %:    77.3037   MPKI: 75.2064
STLB TRANSLATION FROM L1D PREFETCHER ACCESS:    1565022  HIT:    1149711  MISS:     415311  HIT %:    73.4629  MISS %:    26.5371   MPKI: 2.07655
STLB PREFETCH  REQUESTED:          0  ISSUED:          0  USEFUL:     339935  USELESS:     259406
STLB USEFUL LOAD PREFETCHES:     339935 PREFETCH ISSUED TO LOWER LEVEL:          0  ACCURACY: inf
STLB TIMELY PREFETCHES:     339935 LATE PREFETCHES: 0 DROPPED PREFETCHES: 85286
STLB PREFETCHES SAME FILL-ORIGIN LEVEL: 0 DIFFERENT FILL-ORIGIN LEVEL: 0
STLB AVERAGE MISS LATENCY: 44.0055 cycles
STLB RQ	ACCESS:   34702563	FORWARD:          0	MERGED:    4302591	TO_CACHE:   30399972

STLB Hit, L1D data hit: 0
STLB Hit, L2C data hit: 0
STLB Hit, LLC data hit: 0
STLB Hit, LLC data miss: 0
STLB STLB hints to L2: 0
L1D TOTAL     ACCESS:   32546203  HIT:   32039839  MISS:     506364  HIT %:    98.4442  MISS %:    1.55583   MPKI: 2.53182
L1D LOAD      ACCESS:   17872761  HIT:   17546128  MISS:     326633  HIT %:    98.1725  MISS %:    1.82755   MPKI: 1.63316
L1D RFO       ACCESS:   11430192  HIT:   11386156  MISS:      44036  HIT %:    99.6147  MISS %:    0.38526   MPKI: 0.22018
L1D PREFETCH  ACCESS:    3243250  HIT:    3107555  MISS:     135695  HIT %:    95.8161  MISS %:    4.18392   MPKI: 0.678475
L1D PREFETCH  REQUESTED:   13577410  ISSUED:   13567817  USEFUL:     183973  USELESS:      12154
L1D USEFUL LOAD PREFETCHES:     183973 PREFETCH ISSUED TO LOWER LEVEL:    2020478  ACCURACY: 9.10542
L1D TIMELY PREFETCHES:     183973 LATE PREFETCHES: 176 DROPPED PREFETCHES: 136561
L1D PREFETCHES SAME FILL-ORIGIN LEVEL: 196280 DIFFERENT FILL-ORIGIN LEVEL: 1824198
L1D AVERAGE MISS LATENCY: 137.823 cycles
L1D RQ	ACCESS:   39179782	FORWARD:          0	MERGED:   12892254	TO_CACHE:   25815487
L1D WQ	ACCESS:   17909463	FORWARD:     472127	MERGED:    1318875	TO_CACHE:   16590588
L1D PQ	ACCESS:    6904346	FORWARD:          0	MERGED:     240789	TO_CACHE:    6663471

L1D UNIQUE REGIONS ACCESSED: 0
L1D REGIONS CONFLICTS: 0
L1D Cross Page Prefetch Requests: 1678050
L1D Same Page Prefetch Requests: 7105643
L1D ROI Sum of L1D PQ occupancy: 159719665
L1D PREFETCHES PUSHED FROM L2C: 0
L1I TOTAL     ACCESS:   45725648  HIT:   45705497  MISS:      20151  HIT %:    99.9559  MISS %:  0.0440694   MPKI: 0.100755
L1I LOAD      ACCESS:   45725648  HIT:   45705497  MISS:      20151  HIT %:    99.9559  MISS %:  0.0440694   MPKI: 0.100755
L1I PREFETCH  REQUESTED:          0  ISSUED:          0  USEFUL:          0  USELESS:          0
L1I USEFUL LOAD PREFETCHES:          0 PREFETCH ISSUED TO LOWER LEVEL:          0  ACCURACY: -nan
L1I TIMELY PREFETCHES:          0 LATE PREFETCHES: 0 DROPPED PREFETCHES: 0
L1I PREFETCHES SAME FILL-ORIGIN LEVEL: 0 DIFFERENT FILL-ORIGIN LEVEL: 0
L1I AVERAGE MISS LATENCY: 129.086 cycles
L1I RQ	ACCESS:  129890655	FORWARD:          0	MERGED:   63990148	TO_CACHE:   65900507

BTB BRANCH_DIRECT_JUMP	ACCESS:          0  HIT:          0  MISS:          0
BTB BRANCH_INDIRECT	ACCESS:          0  HIT:          0  MISS:          0
BTB BRANCH_CONDITIONAL	ACCESS:          0  HIT:          0  MISS:          0
BTB BRANCH_DIRECT_CALL	ACCESS:          0  HIT:          0  MISS:          0
BTB BRANCH_INDIRECT_CALL	ACCESS:          0  HIT:          0  MISS:          0
BTB BRANCH_RETURN	ACCESS:          0  HIT:          0  MISS:          0
BTB BRANCH_OTHER ACCESS:          0  HIT:          0  MISS:          0

L2C TOTAL     ACCESS:   17543277  HIT:   17090070  MISS:     453207  HIT %:    97.4166  MISS %:    2.58337   MPKI: 2.26603
L2C LOAD      ACCESS:     346661  HIT:     133039  MISS:     213622  HIT %:    38.3773  MISS %:    61.6227   MPKI: 1.06811
L2C DATA LOAD MPKI: 1.01508
L2C INSTRUCTION LOAD MPKI: 0.05303
L2C RFO       ACCESS:      44036  HIT:      28208  MISS:      15828  HIT %:    64.0567  MISS %:    35.9433   MPKI: 0.07914
L2C PREFETCH  ACCESS:    1344865  HIT:    1147569  MISS:     197296  HIT %:    85.3297  MISS %:    14.6703   MPKI: 0.98648
L2C DATA PREFETCH MPKI: 0.98648
L2C INSTRUCTION PREFETCH MPKI: 0
L2C WRITEBACK ACCESS:     269934  HIT:     255561  MISS:      14373  HIT %:    94.6754  MISS %:    5.32463   MPKI: 0.071865
L2C LOAD TRANSLATION ACCESS:   15064473  HIT:   15052580  MISS:      11893  HIT %:    99.9211  MISS %:  0.0789473   MPKI: 0.059465
L2C TRANSLATION FROM L1D PREFETCHER ACCESS:     473308  HIT:     473113  MISS:        195  HIT %:    99.9588  MISS %:  0.0411994   MPKI: 0.000975
L2C PREFETCH  REQUESTED:          0  ISSUED:          0  USEFUL:      74691  USELESS:     210305
L2C USEFUL LOAD PREFETCHES:      74691 PREFETCH ISSUED TO LOWER LEVEL:     285506  ACCURACY: 26.1609
L2C TIMELY PREFETCHES:      74691 LATE PREFETCHES: 948 DROPPED PREFETCHES: 0
L2C PREFETCHES SAME FILL-ORIGIN LEVEL: 245569 DIFFERENT FILL-ORIGIN LEVEL: 0
L2C AVERAGE MISS LATENCY: 239.902 cycles
L2C RQ	ACCESS:   22969762	FORWARD:          0	MERGED:          0	TO_CACHE:   22969759
L2C WQ	ACCESS:     393421	FORWARD:          5	MERGED:          0	TO_CACHE:     393421
L2C PQ	ACCESS:    2020478	FORWARD:          0	MERGED:        212	TO_CACHE:    2020264

L2C Instructions Evicting Data 14435
L2C Translations Evicting Data 16742
L2C Data Evicting Data 570159
L2C Instructions Evicting Instructions 878
L2C Translations Evicting Instructions 407
L2C Data Evicting Instructions 13805
L2C Instructions Evicting Translations 375
L2C Translations Evicting Translations 384
L2C Data Evicting Translations 16192
L2C Dense regions hint from L2: 0
PSCL5 TOTAL     ACCESS:   15514572  HIT:   15514572  MISS:          0  HIT %:        100  MISS %:          0   MPKI: 0
PSCL5 LOAD TRANSLATION ACCESS:   15041276  HIT:   15041276  MISS:          0  HIT %:        100  MISS %:          0   MPKI: 0
PSCL5 TRANSLATION FROM L1D PREFETCHER ACCESS:     473296  HIT:     473296  MISS:          0  HIT %:        100  MISS %:          0   MPKI: 0
PSCL5 PREFETCH  REQUESTED:          0  ISSUED:          0  USEFUL:          0  USELESS:          0
PSCL5 USEFUL LOAD PREFETCHES:          0 PREFETCH ISSUED TO LOWER LEVEL:          0  ACCURACY: -nan
PSCL5 TIMELY PREFETCHES:          0 LATE PREFETCHES: 0 DROPPED PREFETCHES: 0
PSCL5 PREFETCHES SAME FILL-ORIGIN LEVEL: 0 DIFFERENT FILL-ORIGIN LEVEL: 0

PSCL4 TOTAL     ACCESS:   15514572  HIT:   15514572  MISS:          0  HIT %:        100  MISS %:          0   MPKI: 0
PSCL4 LOAD TRANSLATION ACCESS:   15041276  HIT:   15041276  MISS:          0  HIT %:        100  MISS %:          0   MPKI: 0
PSCL4 TRANSLATION FROM L1D PREFETCHER ACCESS:     473296  HIT:     473296  MISS:          0  HIT %:        100  MISS %:          0   MPKI: 0
PSCL4 PREFETCH  REQUESTED:          0  ISSUED:          0  USEFUL:          0  USELESS:          0
PSCL4 USEFUL LOAD PREFETCHES:          0 PREFETCH ISSUED TO LOWER LEVEL:          0  ACCURACY: -nan
PSCL4 TIMELY PREFETCHES:          0 LATE PREFETCHES: 0 DROPPED PREFETCHES: 0
PSCL4 PREFETCHES SAME FILL-ORIGIN LEVEL: 0 DIFFERENT FILL-ORIGIN LEVEL: 0

PSCL3 TOTAL     ACCESS:   15514143  HIT:   15514033  MISS:        110  HIT %:    99.9993  MISS %: 0.00070903   MPKI: 0.00055
PSCL3 LOAD TRANSLATION ACCESS:   15040848  HIT:   15040738  MISS:        110  HIT %:    99.9993  MISS %: 0.000731342   MPKI: 0.00055
PSCL3 TRANSLATION FROM L1D PREFETCHER ACCESS:     473295  HIT:     473295  MISS:          0  HIT %:        100  MISS %:          0   MPKI: 0
PSCL3 PREFETCH  REQUESTED:          0  ISSUED:          0  USEFUL:          0  USELESS:          0
PSCL3 USEFUL LOAD PREFETCHES:          0 PREFETCH ISSUED TO LOWER LEVEL:          0  ACCURACY: -nan
PSCL3 TIMELY PREFETCHES:          0 LATE PREFETCHES: 0 DROPPED PREFETCHES: 0
PSCL3 PREFETCHES SAME FILL-ORIGIN LEVEL: 0 DIFFERENT FILL-ORIGIN LEVEL: 0

PSCL2 TOTAL     ACCESS:   15514571  HIT:   15491472  MISS:      23099  HIT %:    99.8511  MISS %:   0.148886   MPKI: 0.115495
PSCL2 LOAD TRANSLATION ACCESS:   15041288  HIT:   15018189  MISS:      23099  HIT %:    99.8464  MISS %:   0.153571   MPKI: 0.115495
PSCL2 TRANSLATION FROM L1D PREFETCHER ACCESS:     473283  HIT:     473283  MISS:          0  HIT %:        100  MISS %:          0   MPKI: 0
PSCL2 PREFETCH  REQUESTED:          0  ISSUED:          0  USEFUL:          0  USELESS:          0
PSCL2 USEFUL LOAD PREFETCHES:          0 PREFETCH ISSUED TO LOWER LEVEL:          0  ACCURACY: -nan
PSCL2 TIMELY PREFETCHES:          0 LATE PREFETCHES: 0 DROPPED PREFETCHES: 0
PSCL2 PREFETCHES SAME FILL-ORIGIN LEVEL: 0 DIFFERENT FILL-ORIGIN LEVEL: 0

LLC TOTAL     ACCESS:     646142  HIT:     302638  MISS:     343504  HIT %:    46.8377  MISS %:    53.1623   MPKI: 1.71752
LLC LOAD      ACCESS:     212965  HIT:      60180  MISS:     152785  HIT %:    28.2582  MISS %:    71.7418   MPKI: 0.763925
LLC RFO       ACCESS:      15826  HIT:       3064  MISS:      12762  HIT %:    19.3605  MISS %:    80.6395   MPKI: 0.06381
LLC PREFETCH  ACCESS:     197955  HIT:      42773  MISS:     155182  HIT %:    21.6074  MISS %:    78.3926   MPKI: 0.77591
LLC WRITEBACK ACCESS:     207308  HIT:     187976  MISS:      19332  HIT %:    90.6747  MISS %:    9.32526   MPKI: 0.09666
LLC LOAD TRANSLATION ACCESS:      11893  HIT:       8528  MISS:       3365  HIT %:     71.706  MISS %:     28.294   MPKI: 0.016825
LLC TRANSLATION FROM L1D PREFETCHER ACCESS:        195  HIT:        117  MISS:         78  HIT %:         60  MISS %:         40   MPKI: 0.00039
LLC PREFETCH  REQUESTED:          0  ISSUED:          0  USEFUL:      44261  USELESS:     586070
LLC USEFUL LOAD PREFETCHES:      44261 PREFETCH ISSUED TO LOWER LEVEL:     638021  ACCURACY: 6.93723
LLC TIMELY PREFETCHES:      44261 LATE PREFETCHES: 0 DROPPED PREFETCHES: 0
LLC PREFETCHES SAME FILL-ORIGIN LEVEL: 0 DIFFERENT FILL-ORIGIN LEVEL: 0
LLC AVERAGE MISS LATENCY: 1484.52 cycles
LLC RQ	ACCESS:    2623903	FORWARD:          0	MERGED:          0	TO_CACHE:    2623903
LLC WQ	ACCESS:    1476277	FORWARD:          0	MERGED:          0	TO_CACHE:    1476277
LLC PQ	ACCESS:     890825	FORWARD:          0	MERGED:          0	TO_CACHE:     890825

LLC Dense regions hint to LLC: 0

RAW hits: 6659395
Loads Generated: 33831339
Loads sent to L1D: 27171938
Stores Generated: 12428903
Stores sent to L1D: 12428902
Major fault: 0 Minor fault: 2510
Allocated PAGES: 84331

CPU 2 cumulative IPC: 0.495604 instructions: 200000000 cycles: 403547878
ITLB TOTAL     ACCESS:   34818835  HIT:   25309290  MISS:    9509545  HIT %:    72.6885  MISS %:    27.3115   MPKI: 47.5477
ITLB LOAD TRANSLATION ACCESS:   34818835  HIT:   25309290  MISS:    9509545  HIT %:    72.6885  MISS %:    27.3115   MPKI: 47.5477
ITLB PREFETCH  REQUESTED:          0  ISSUED:          0  USEFUL:          0  USELESS:          0
ITLB USEFUL LOAD PREFETCHES:          0 PREFETCH ISSUED TO LOWER LEVEL:          0  ACCURACY: -nan
ITLB TIMELY PREFETCHES:          0 LATE PREFETCHES: 0 DROPPED PREFETCHES: 0
ITLB PREFETCHES SAME FILL-ORIGIN LEVEL: 0 DIFFERENT FILL-ORIGIN LEVEL: 0
ITLB AVERAGE MISS LATENCY: 33.4046 cycles
ITLB RQ	ACCESS:   44413232	FORWARD:          0	MERGED:    5983253	TO_CACHE:   38429979

DTLB TOTAL     ACCESS:   23306878  HIT:   13540431  MISS:    9766447  HIT %:    58.0963  MISS %:    41.9037   MPKI: 48.8322
DTLB LOAD TRANSLATION ACCESS:   23306878  HIT:   13540431  MISS:    9766447  HIT %:    58.0963  MISS %:    41.9037   MPKI: 48.8322
DTLB PREFETCH  REQUESTED:          0  ISSUED:          0  USEFUL:          0  USELESS:          0
DTLB USEFUL LOAD PREFETCHES:          0 PREFETCH ISSUED TO LOWER LEVEL:          0  ACCURACY: -nan
DTLB TIMELY PREFETCHES:          0 LATE PREFETCHES: 0 DROPPED PREFETCHES: 0
DTLB PREFETCHES SAME FILL-ORIGIN LEVEL: 0 DIFFERENT FILL-ORIGIN LEVEL: 0
DTLB AVERAGE MISS LATENCY: 34.2629 cycles
DTLB RQ	ACCESS:   32247733	FORWARD:          0	MERGED:    7470952	TO_CACHE:   24776781

STLB TOTAL     ACCESS:   19579696  HIT:    4414533  MISS:   15165163  HIT %:    22.5465  MISS %:    77.4535   MPKI: 75.8258
STLB LOAD TRANSLATION ACCESS:   19275992  HIT:    4129017  MISS:   15146975  HIT %:    21.4205  MISS %:    78.5795   MPKI: 75.7349
STLB TRANSLATION FROM L1D PREFETCHER ACCESS:     303704  HIT:     285516  MISS:      18188  HIT %:    94.0113  MISS %:    5.98873   MPKI: 0.09094
STLB PREFETCH  REQUESTED:          0  ISSUED:          0  USEFUL:      13945  USELESS:       4246
STLB USEFUL LOAD PREFETCHES:      13945 PREFETCH ISSUED TO LOWER LEVEL:          0  ACCURACY: inf
STLB TIMELY PREFETCHES:      13945 LATE PREFETCHES: 0 DROPPED PREFETCHES: 594
STLB PREFETCHES SAME FILL-ORIGIN LEVEL: 0 DIFFERENT FILL-ORIGIN LEVEL: 0
STLB AVERAGE MISS LATENCY: 31.6183 cycles
STLB RQ	ACCESS:   20078371	FORWARD:          0	MERGED:     497284	TO_CACHE:   19581087

STLB Hit, L1D data hit: 0
STLB Hit, L2C data hit: 0
STLB Hit, LLC data hit: 0
STLB Hit, LLC data miss: 0
STLB STLB hints to L2: 0
L1D TOTAL     ACCESS:   32233745  HIT:   30875321  MISS:    1358424  HIT %:    95.7857  MISS %:    4.21429   MPKI: 6.79212
L1D LOAD      ACCESS:   18324843  HIT:   17143755  MISS:    1181088  HIT %:    93.5547  MISS %:    6.44528   MPKI: 5.90544
L1D RFO       ACCESS:   13585777  HIT:   13478744  MISS:     107033  HIT %:    99.2122  MISS %:   0.787831   MPKI: 0.535165
L1D PREFETCH  ACCESS:     323125  HIT:     252822  MISS:      70303  HIT %:    78.2428  MISS %:    21.7572   MPKI: 0.351515
L1D PREFETCH  REQUESTED:    1637473  ISSUED:    1632728  USEFUL:      53151  USELESS:      17152
L1D USEFUL LOAD PREFETCHES:      53151 PREFETCH ISSUED TO LOWER LEVEL:     541285  ACCURACY: 9.81941
L1D TIMELY PREFETCHES:      53151 LATE PREFETCHES: 649 DROPPED PREFETCHES: 1129
L1D PREFETCHES SAME FILL-ORIGIN LEVEL: 70960 DIFFERENT FILL-ORIGIN LEVEL: 470325
L1D AVERAGE MISS LATENCY: 173.032 cycles
L1D RQ	ACCESS:   27494827	FORWARD:          0	MERGED:    8986039	TO_CACHE:   18361749
L1D WQ	ACCESS:   14422998	FORWARD:     147063	MERGED:     537014	TO_CACHE:   13885984
L1D PQ	ACCESS:     830346	FORWARD:          0	MERGED:      27940	TO_CACHE:     802382

L1D UNIQUE REGIONS ACCESSED: 0
L1D REGIONS CONFLICTS: 0
L1D Cross Page Prefetch Requests: 184413
L1D Same Page Prefetch Requests: 876947
L1D ROI Sum of L1D PQ occupancy: 14914734
L1D PREFETCHES PUSHED FROM L2C: 0
L1I TOTAL     ACCESS:   44247115  HIT:   43728271  MISS:     518844  HIT %:    98.8274  MISS %:    1.17261   MPKI: 2.59422
L1I LOAD      ACCESS:   44247115  HIT:   43728271  MISS:     518844  HIT %:    98.8274  MISS %:    1.17261   MPKI: 2.59422
L1I PREFETCH  REQUESTED:          0  ISSUED:          0  USEFUL:          0  USELESS:          0
L1I USEFUL LOAD PREFETCHES:          0 PREFETCH ISSUED TO LOWER LEVEL:          0  ACCURACY: -nan
L1I TIMELY PREFETCHES:          0 LATE PREFETCHES: 0 DROPPED PREFETCHES: 0
L1I PREFETCHES SAME FILL-ORIGIN LEVEL: 0 DIFFERENT FILL-ORIGIN LEVEL: 0
L1I AVERAGE MISS LATENCY: 15.8202 cycles
L1I RQ	ACCESS:   82237744	FORWARD:          0	MERGED:   37824512	TO_CACHE:   44413232

BTB BRANCH_DIRECT_JUMP	ACCESS:          0  HIT:          0  MISS:          0
BTB BRANCH_INDIRECT	ACCESS:          0  HIT:          0  MISS:          0
BTB BRANCH_CONDITIONAL	ACCESS:          0  HIT:          0  MISS:          0
BTB BRANCH_DIRECT_CALL	ACCESS:          0  HIT:          0  MISS:          0
BTB BRANCH_INDIRECT_CALL	ACCESS:          0  HIT:          0  MISS:          0
BTB BRANCH_RETURN	ACCESS:          0  HIT:          0  MISS:          0
BTB BRANCH_OTHER ACCESS:          0  HIT:          0  MISS:          0

L2C TOTAL     ACCESS:   18194298  HIT:   16655445  MISS:    1538853  HIT %:    91.5421  MISS %:    8.45789   MPKI: 7.69426
L2C LOAD      ACCESS:    1699282  HIT:     700920  MISS:     998362  HIT %:     41.248  MISS %:     58.752   MPKI: 4.99181
L2C DATA LOAD MPKI: 4.93914
L2C INSTRUCTION LOAD MPKI: 0.052675
L2C RFO       ACCESS:     107025  HIT:      14151  MISS:      92874  HIT %:    13.2221  MISS %:    86.7779   MPKI: 0.46437
L2C PREFETCH  ACCESS:     518722  HIT:     269523  MISS:     249199  HIT %:     51.959  MISS %:     48.041   MPKI: 1.24599
L2C DATA PREFETCH MPKI: 1.24599
L2C INSTRUCTION PREFETCH MPKI: 0
L2C WRITEBACK ACCESS:     486266  HIT:     446398  MISS:      39868  HIT %:    91.8012  MISS %:     8.1988   MPKI: 0.19934
L2C LOAD TRANSLATION ACCESS:   15363797  HIT:   15206018  MISS:     157779  HIT %:     98.973  MISS %:    1.02695   MPKI: 0.788895
L2C TRANSLATION FROM L1D PREFETCHER ACCESS:      19206  HIT:      18435  MISS:        771  HIT %:    95.9856  MISS %:    4.01437   MPKI: 0.003855
L2C PREFETCH  REQUESTED:          0  ISSUED:          0  USEFUL:      73110  USELESS:     176960
L2C USEFUL LOAD PREFETCHES:      73110 PREFETCH ISSUED TO LOWER LEVEL:     250406  ACCURACY: 29.1966
L2C TIMELY PREFETCHES:      73110 LATE PREFETCHES: 1207 DROPPED PREFETCHES: 0
L2C PREFETCHES SAME FILL-ORIGIN LEVEL: 201967 DIFFERENT FILL-ORIGIN LEVEL: 0
L2C AVERAGE MISS LATENCY: 182.613 cycles
L2C RQ	ACCESS:   17189311	FORWARD:          0	MERGED:          0	TO_CACHE:   17189310
L2C WQ	ACCESS:     486266	FORWARD:          1	MERGED:          0	TO_CACHE:     486266
L2C PQ	ACCESS:     538285	FORWARD:          0	MERGED:        769	TO_CACHE:     537516

L2C Instructions Evicting Data 9438
L2C Translations Evicting Data 138712
L2C Data Evicting Data 1184626
L2C Instructions Evicting Instructions 314
L2C Translations Evicting Instructions 612
L2C Data Evicting Instructions 9117
L2C Instructions Evicting Translations 783
L2C Translations Evicting Translations 19225
L2C Data Evicting Translations 136133
L2C Dense regions hint from L2: 0
PSCL5 TOTAL     ACCESS:   15165756  HIT:   15165756  MISS:          0  HIT %:        100  MISS %:          0   MPKI: 0
PSCL5 LOAD TRANSLATION ACCESS:   15146974  HIT:   15146974  MISS:          0  HIT %:        100  MISS %:          0   MPKI: 0
PSCL5 TRANSLATION FROM L1D PREFETCHER ACCESS:      18782  HIT:      18782  MISS:          0  HIT %:        100  MISS %:          0   MPKI: 0
PSCL5 PREFETCH  REQUESTED:          0  ISSUED:          0  USEFUL:          0  USELESS:          0
PSCL5 USEFUL LOAD PREFETCHES:          0 PREFETCH ISSUED TO LOWER LEVEL:          0  ACCURACY: -nan
PSCL5 TIMELY PREFETCHES:          0 LATE PREFETCHES: 0 DROPPED PREFETCHES: 0
PSCL5 PREFETCHES SAME FILL-ORIGIN LEVEL: 0 DIFFERENT FILL-ORIGIN LEVEL: 0

PSCL4 TOTAL     ACCESS:    7114311  HIT:    7114311  MISS:          0  HIT %:        100  MISS %:          0   MPKI: 0
PSCL4 LOAD TRANSLATION ACCESS:    7095591  HIT:    7095591  MISS:          0  HIT %:        100  MISS %:          0   MPKI: 0
PSCL4 TRANSLATION FROM L1D PREFETCHER ACCESS:      18720  HIT:      18720  MISS:          0  HIT %:        100  MISS %:          0   MPKI: 0
PSCL4 PREFETCH  REQUESTED:          0  ISSUED:          0  USEFUL:          0  USELESS:          0
PSCL4 USEFUL LOAD PREFETCHES:          0 PREFETCH ISSUED TO LOWER LEVEL:          0  ACCURACY: -nan
PSCL4 TIMELY PREFETCHES:          0 LATE PREFETCHES: 0 DROPPED PREFETCHES: 0
PSCL4 PREFETCHES SAME FILL-ORIGIN LEVEL: 0 DIFFERENT FILL-ORIGIN LEVEL: 0

PSCL3 TOTAL     ACCESS:   15162495  HIT:   15162210  MISS:        285  HIT %:    99.9981  MISS %: 0.00187964   MPKI: 0.001425
PSCL3 LOAD TRANSLATION ACCESS:   15143717  HIT:   15143432  MISS:        285  HIT %:    99.9981  MISS %: 0.00188197   MPKI: 0.001425
PSCL3 TRANSLATION FROM L1D PREFETCHER ACCESS:      18778  HIT:      18778  MISS:          0  HIT %:        100  MISS %:          0   MPKI: 0
PSCL3 PREFETCH  REQUESTED:          0  ISSUED:          0  USEFUL:          0  USELESS:          0
PSCL3 USEFUL LOAD PREFETCHES:          0 PREFETCH ISSUED TO LOWER LEVEL:          0  ACCURACY: -nan
PSCL3 TIMELY PREFETCHES:          0 LATE PREFETCHES: 0 DROPPED PREFETCHES: 0
PSCL3 PREFETCHES SAME FILL-ORIGIN LEVEL: 0 DIFFERENT FILL-ORIGIN LEVEL: 0

PSCL2 TOTAL     ACCESS:   15165674  HIT:   14948715  MISS:     216959  HIT %:    98.5694  MISS %:    1.43059   MPKI: 1.08479
PSCL2 LOAD TRANSLATION ACCESS:   15147395  HIT:   14930436  MISS:     216959  HIT %:    98.5677  MISS %:    1.43232   MPKI: 1.08479
PSCL2 TRANSLATION FROM L1D PREFETCHER ACCESS:      18279  HIT:      18279  MISS:          0  HIT %:        100  MISS %:          0   MPKI: 0
PSCL2 PREFETCH  REQUESTED:          0  ISSUED:          0  USEFUL:          0  USELESS:          0
PSCL2 USEFUL LOAD PREFETCHES:          0 PREFETCH ISSUED TO LOWER LEVEL:          0  ACCURACY: -nan
PSCL2 TIMELY PREFETCHES:          0 LATE PREFETCHES: 0 DROPPED PREFETCHES: 0
PSCL2 PREFETCHES SAME FILL-ORIGIN LEVEL: 0 DIFFERENT FILL-ORIGIN LEVEL: 0

LLC TOTAL     ACCESS:    1928080  HIT:     711993  MISS:    1216087  HIT %:    36.9276  MISS %:    63.0724   MPKI: 6.08043
LLC LOAD      ACCESS:     997195  HIT:     141286  MISS:     855909  HIT %:    14.1683  MISS %:    85.8317   MPKI: 4.27954
LLC RFO       ACCESS:      92834  HIT:      11503  MISS:      81331  HIT %:    12.3909  MISS %:    87.6091   MPKI: 0.406655
LLC PREFETCH  ACCESS:     250406  HIT:     102104  MISS:     148302  HIT %:    40.7754  MISS %:    59.2246   MPKI: 0.74151
LLC WRITEBACK ACCESS:     429095  HIT:     417330  MISS:      11765  HIT %:    97.2582  MISS %:    2.74182   MPKI: 0.058825
LLC LOAD TRANSLATION ACCESS:     157779  HIT:      39214  MISS:     118565  HIT %:    24.8538  MISS %:    75.1462   MPKI: 0.592825
LLC TRANSLATION FROM L1D PREFETCHER ACCESS:        771  HIT:        556  MISS:        215  HIT %:    72.1141  MISS %:    27.8859   MPKI: 0.001075
LLC PREFETCH  REQUESTED:          0  ISSUED:          0  USEFUL:      44261  USELESS:     586070
LLC USEFUL LOAD PREFETCHES:      44261 PREFETCH ISSUED TO LOWER LEVEL:     638021  ACCURACY: 6.93723
LLC TIMELY PREFETCHES:      44261 LATE PREFETCHES: 0 DROPPED PREFETCHES: 0
LLC PREFETCHES SAME FILL-ORIGIN LEVEL: 0 DIFFERENT FILL-ORIGIN LEVEL: 0
LLC AVERAGE MISS LATENCY: 419.327 cycles
LLC RQ	ACCESS:    2623903	FORWARD:          0	MERGED:          0	TO_CACHE:    2623903
LLC WQ	ACCESS:    1476277	FORWARD:          0	MERGED:          0	TO_CACHE:    1476277
LLC PQ	ACCESS:     890825	FORWARD:          0	MERGED:          0	TO_CACHE:     890825

LLC Dense regions hint to LLC: 0

RAW hits: 3206330
Loads Generated: 30701158
Loads sent to L1D: 27494827
Stores Generated: 14422998
Stores sent to L1D: 14422998
Major fault: 0 Minor fault: 72903
Allocated PAGES: 84331

CPU 3 cumulative IPC: 0.645952 instructions: 200000000 cycles: 309620754
ITLB TOTAL     ACCESS:   37807153  HIT:   28788471  MISS:    9018682  HIT %:    76.1456  MISS %:    23.8544   MPKI: 45.0934
ITLB LOAD TRANSLATION ACCESS:   37807153  HIT:   28788471  MISS:    9018682  HIT %:    76.1456  MISS %:    23.8544   MPKI: 45.0934
ITLB PREFETCH  REQUESTED:          0  ISSUED:          0  USEFUL:          0  USELESS:          0
ITLB USEFUL LOAD PREFETCHES:          0 PREFETCH ISSUED TO LOWER LEVEL:          0  ACCURACY: -nan
ITLB TIMELY PREFETCHES:          0 LATE PREFETCHES: 0 DROPPED PREFETCHES: 0
ITLB PREFETCHES SAME FILL-ORIGIN LEVEL: 0 DIFFERENT FILL-ORIGIN LEVEL: 0
ITLB AVERAGE MISS LATENCY: 44.9806 cycles
ITLB RQ	ACCESS:   60293647	FORWARD:          0	MERGED:    7311670	TO_CACHE:   52981977

DTLB TOTAL     ACCESS:   24748314  HIT:   13722293  MISS:   11026021  HIT %:    55.4474  MISS %:    44.5526   MPKI: 55.1301
DTLB LOAD TRANSLATION ACCESS:   24748314  HIT:   13722293  MISS:   11026021  HIT %:    55.4474  MISS %:    44.5526   MPKI: 55.1301
DTLB PREFETCH  REQUESTED:          0  ISSUED:          0  USEFUL:          0  USELESS:          0
DTLB USEFUL LOAD PREFETCHES:          0 PREFETCH ISSUED TO LOWER LEVEL:          0  ACCURACY: -nan
DTLB TIMELY PREFETCHES:          0 LATE PREFETCHES: 0 DROPPED PREFETCHES: 0
DTLB PREFETCHES SAME FILL-ORIGIN LEVEL: 0 DIFFERENT FILL-ORIGIN LEVEL: 0
DTLB AVERAGE MISS LATENCY: 42.7344 cycles
DTLB RQ	ACCESS:   38715279	FORWARD:          0	MERGED:    4718631	TO_CACHE:   33996648

STLB TOTAL     ACCESS:   22368756  HIT:    5900800  MISS:   16467956  HIT %:    26.3797  MISS %:    73.6203   MPKI: 82.3398
STLB LOAD TRANSLATION ACCESS:   20044703  HIT:    4330967  MISS:   15713736  HIT %:    21.6065  MISS %:    78.3935   MPKI: 78.5687
STLB TRANSLATION FROM L1D PREFETCHER ACCESS:    2324053  HIT:    1569833  MISS:     754220  HIT %:    67.5472  MISS %:    32.4528   MPKI: 3.7711
STLB PREFETCH  REQUESTED:          0  ISSUED:          0  USEFUL:     586792  USELESS:     404208
STLB USEFUL LOAD PREFETCHES:     586792 PREFETCH ISSUED TO LOWER LEVEL:          0  ACCURACY: inf
STLB TIMELY PREFETCHES:     586792 LATE PREFETCHES: 0 DROPPED PREFETCHES: 37822
STLB PREFETCHES SAME FILL-ORIGIN LEVEL: 0 DIFFERENT FILL-ORIGIN LEVEL: 0
STLB AVERAGE MISS LATENCY: 40.9898 cycles
STLB RQ	ACCESS:   35966863	FORWARD:          0	MERGED:    6640014	TO_CACHE:   29326849

STLB Hit, L1D data hit: 0
STLB Hit, L2C data hit: 0
STLB Hit, LLC data hit: 0
STLB Hit, LLC data miss: 0
STLB STLB hints to L2: 0
L1D TOTAL     ACCESS:   34770651  HIT:   34050538  MISS:     720113  HIT %:     97.929  MISS %:    2.07104   MPKI: 3.60057
L1D LOAD      ACCESS:   18176631  HIT:   17658273  MISS:     518358  HIT %:    97.1482  MISS %:    2.85178   MPKI: 2.59179
L1D RFO       ACCESS:   11354011  HIT:   11328124  MISS:      25887  HIT %:     99.772  MISS %:   0.227999   MPKI: 0.129435
L1D PREFETCH  ACCESS:    5240009  HIT:    5064141  MISS:     175868  HIT %:    96.6437  MISS %:    3.35625   MPKI: 0.87934
L1D PREFETCH  REQUESTED:   20211719  ISSUED:   20117334  USEFUL:     211964  USELESS:      19584
L1D USEFUL LOAD PREFETCHES:     211964 PREFETCH ISSUED TO LOWER LEVEL:    2976321  ACCURACY: 7.12168
L1D TIMELY PREFETCHES:     211964 LATE PREFETCHES: 62 DROPPED PREFETCHES: 57699
L1D PREFETCHES SAME FILL-ORIGIN LEVEL: 231631 DIFFERENT FILL-ORIGIN LEVEL: 2744690
L1D AVERAGE MISS LATENCY: 139.304 cycles
L1D RQ	ACCESS:   36127816	FORWARD:          0	MERGED:   11908360	TO_CACHE:   23807516
L1D WQ	ACCESS:   16086362	FORWARD:     412902	MERGED:    1178599	TO_CACHE:   14907763
L1D PQ	ACCESS:   10359318	FORWARD:          0	MERGED:     600340	TO_CACHE:    9758016

L1D UNIQUE REGIONS ACCESSED: 0
L1D REGIONS CONFLICTS: 0
L1D Cross Page Prefetch Requests: 2907289
L1D Same Page Prefetch Requests: 10250936
L1D ROI Sum of L1D PQ occupancy: 261805185
L1D PREFETCHES PUSHED FROM L2C: 0
L1I TOTAL     ACCESS:   46092777  HIT:   46089864  MISS:       2913  HIT %:    99.9937  MISS %: 0.00631986   MPKI: 0.014565
L1I LOAD      ACCESS:   46092777  HIT:   46089864  MISS:       2913  HIT %:    99.9937  MISS %: 0.00631986   MPKI: 0.014565
L1I PREFETCH  REQUESTED:          0  ISSUED:          0  USEFUL:          0  USELESS:          0
L1I USEFUL LOAD PREFETCHES:          0 PREFETCH ISSUED TO LOWER LEVEL:          0  ACCURACY: -nan
L1I TIMELY PREFETCHES:          0 LATE PREFETCHES: 0 DROPPED PREFETCHES: 0
L1I PREFETCHES SAME FILL-ORIGIN LEVEL: 0 DIFFERENT FILL-ORIGIN LEVEL: 0
L1I AVERAGE MISS LATENCY: 269.408 cycles
L1I RQ	ACCESS:  117451349	FORWARD:          0	MERGED:   57157702	TO_CACHE:   60293647

BTB BRANCH_DIRECT_JUMP	ACCESS:          0  HIT:          0  MISS:          0
BTB BRANCH_INDIRECT	ACCESS:          0  HIT:          0  MISS:          0
BTB BRANCH_CONDITIONAL	ACCESS:          0  HIT:          0  MISS:          0
BTB BRANCH_DIRECT_CALL	ACCESS:          0  HIT:          0  MISS:          0
BTB BRANCH_INDIRECT_CALL	ACCESS:          0  HIT:          0  MISS:          0
BTB BRANCH_RETURN	ACCESS:          0  HIT:          0  MISS:          0
BTB BRANCH_OTHER ACCESS:          0  HIT:          0  MISS:          0

L2C TOTAL     ACCESS:   19728913  HIT:   19018834  MISS:     710079  HIT %:    96.4008  MISS %:    3.59918   MPKI: 3.55039
L2C LOAD      ACCESS:     521225  HIT:     133671  MISS:     387554  HIT %:    25.6455  MISS %:    74.3545   MPKI: 1.93777
L2C DATA LOAD MPKI: 1.92354
L2C INSTRUCTION LOAD MPKI: 0.01423
L2C RFO       ACCESS:      25886  HIT:       8679  MISS:      17207  HIT %:    33.5278  MISS %:    66.4722   MPKI: 0.086035
L2C PREFETCH  ACCESS:    2211735  HIT:    1957347  MISS:     254388  HIT %:    88.4983  MISS %:    11.5017   MPKI: 1.27194
L2C DATA PREFETCH MPKI: 1.27194
L2C INSTRUCTION PREFETCH MPKI: 0
L2C WRITEBACK ACCESS:     404541  HIT:     379209  MISS:      25332  HIT %:    93.7381  MISS %:    6.26191   MPKI: 0.12666
L2C LOAD TRANSLATION ACCESS:   15782582  HIT:   15757464  MISS:      25118  HIT %:    99.8408  MISS %:    0.15915   MPKI: 0.12559
L2C TRANSLATION FROM L1D PREFETCHER ACCESS:     782944  HIT:     782464  MISS:        480  HIT %:    99.9387  MISS %:  0.0613071   MPKI: 0.0024
L2C PREFETCH  REQUESTED:          0  ISSUED:          0  USEFUL:      70533  USELESS:     261483
L2C USEFUL LOAD PREFETCHES:      70533 PREFETCH ISSUED TO LOWER LEVEL:     334396  ACCURACY: 21.0927
L2C TIMELY PREFETCHES:      70533 LATE PREFETCHES: 627 DROPPED PREFETCHES: 0
L2C PREFETCHES SAME FILL-ORIGIN LEVEL: 280075 DIFFERENT FILL-ORIGIN LEVEL: 0
L2C AVERAGE MISS LATENCY: 197.995 cycles
L2C RQ	ACCESS:   22381196	FORWARD:          0	MERGED:          0	TO_CACHE:   22381193
L2C WQ	ACCESS:     520567	FORWARD:          5	MERGED:          0	TO_CACHE:     520567
L2C PQ	ACCESS:    2976321	FORWARD:          0	MERGED:        358	TO_CACHE:    2975961

L2C Instructions Evicting Data 3337
L2C Translations Evicting Data 32090
L2C Data Evicting Data 810866
L2C Instructions Evicting Instructions 30
L2C Translations Evicting Instructions 128
L2C Data Evicting Instructions 3180
L2C Instructions Evicting Translations 85
L2C Translations Evicting Translations 837
L2C Data Evicting Translations 30850
L2C Dense regions hint from L2: 0
PSCL5 TOTAL     ACCESS:   16496597  HIT:   16496597  MISS:          0  HIT %:        100  MISS %:          0   MPKI: 0
PSCL5 LOAD TRANSLATION ACCESS:   15713737  HIT:   15713737  MISS:          0  HIT %:        100  MISS %:          0   MPKI: 0
PSCL5 TRANSLATION FROM L1D PREFETCHER ACCESS:     782860  HIT:     782860  MISS:          0  HIT %:        100  MISS %:          0   MPKI: 0
PSCL5 PREFETCH  REQUESTED:          0  ISSUED:          0  USEFUL:          0  USELESS:          0
PSCL5 USEFUL LOAD PREFETCHES:          0 PREFETCH ISSUED TO LOWER LEVEL:          0  ACCURACY: -nan
PSCL5 TIMELY PREFETCHES:          0 LATE PREFETCHES: 0 DROPPED PREFETCHES: 0
PSCL5 PREFETCHES SAME FILL-ORIGIN LEVEL: 0 DIFFERENT FILL-ORIGIN LEVEL: 0

PSCL4 TOTAL     ACCESS:   16496597  HIT:   16496597  MISS:          0  HIT %:        100  MISS %:          0   MPKI: 0
PSCL4 LOAD TRANSLATION ACCESS:   15713737  HIT:   15713737  MISS:          0  HIT %:        100  MISS %:          0   MPKI: 0
PSCL4 TRANSLATION FROM L1D PREFETCHER ACCESS:     782860  HIT:     782860  MISS:          0  HIT %:        100  MISS %:          0   MPKI: 0
PSCL4 PREFETCH  REQUESTED:          0  ISSUED:          0  USEFUL:          0  USELESS:          0
PSCL4 USEFUL LOAD PREFETCHES:          0 PREFETCH ISSUED TO LOWER LEVEL:          0  ACCURACY: -nan
PSCL4 TIMELY PREFETCHES:          0 LATE PREFETCHES: 0 DROPPED PREFETCHES: 0
PSCL4 PREFETCHES SAME FILL-ORIGIN LEVEL: 0 DIFFERENT FILL-ORIGIN LEVEL: 0

PSCL3 TOTAL     ACCESS:   16496020  HIT:   16495945  MISS:         75  HIT %:    99.9995  MISS %: 0.000454655   MPKI: 0.000375
PSCL3 LOAD TRANSLATION ACCESS:   15713160  HIT:   15713085  MISS:         75  HIT %:    99.9995  MISS %: 0.000477307   MPKI: 0.000375
PSCL3 TRANSLATION FROM L1D PREFETCHER ACCESS:     782860  HIT:     782860  MISS:          0  HIT %:        100  MISS %:          0   MPKI: 0
PSCL3 PREFETCH  REQUESTED:          0  ISSUED:          0  USEFUL:          0  USELESS:          0
PSCL3 USEFUL LOAD PREFETCHES:          0 PREFETCH ISSUED TO LOWER LEVEL:          0  ACCURACY: -nan
PSCL3 TIMELY PREFETCHES:          0 LATE PREFETCHES: 0 DROPPED PREFETCHES: 0
PSCL3 PREFETCHES SAME FILL-ORIGIN LEVEL: 0 DIFFERENT FILL-ORIGIN LEVEL: 0

PSCL2 TOTAL     ACCESS:   16496595  HIT:   16427742  MISS:      68853  HIT %:    99.5826  MISS %:   0.417377   MPKI: 0.344265
PSCL2 LOAD TRANSLATION ACCESS:   15713819  HIT:   15644966  MISS:      68853  HIT %:    99.5618  MISS %:   0.438168   MPKI: 0.344265
PSCL2 TRANSLATION FROM L1D PREFETCHER ACCESS:     782776  HIT:     782776  MISS:          0  HIT %:        100  MISS %:          0   MPKI: 0
PSCL2 PREFETCH  REQUESTED:          0  ISSUED:          0  USEFUL:          0  USELESS:          0
PSCL2 USEFUL LOAD PREFETCHES:          0 PREFETCH ISSUED TO LOWER LEVEL:          0  ACCURACY: -nan
PSCL2 TIMELY PREFETCHES:          0 LATE PREFETCHES: 0 DROPPED PREFETCHES: 0
PSCL2 PREFETCHES SAME FILL-ORIGIN LEVEL: 0 DIFFERENT FILL-ORIGIN LEVEL: 0

LLC TOTAL     ACCESS:    1041362  HIT:     562425  MISS:     478937  HIT %:    54.0086  MISS %:    45.9914   MPKI: 2.39468
LLC LOAD      ACCESS:     387110  HIT:     125096  MISS:     262014  HIT %:    32.3154  MISS %:    67.6846   MPKI: 1.31007
LLC RFO       ACCESS:      17207  HIT:       7125  MISS:      10082  HIT %:    41.4076  MISS %:    58.5924   MPKI: 0.05041
LLC PREFETCH  ACCESS:     254832  HIT:      63942  MISS:     190890  HIT %:    25.0918  MISS %:    74.9082   MPKI: 0.95445
LLC WRITEBACK ACCESS:     356615  HIT:     343580  MISS:      13035  HIT %:    96.3448  MISS %:     3.6552   MPKI: 0.065175
LLC LOAD TRANSLATION ACCESS:      25118  HIT:      22327  MISS:       2791  HIT %:    88.8884  MISS %:    11.1116   MPKI: 0.013955
LLC TRANSLATION FROM L1D PREFETCHER ACCESS:        480  HIT:        355  MISS:        125  HIT %:    73.9583  MISS %:    26.0417   MPKI: 0.000625
LLC PREFETCH  REQUESTED:          0  ISSUED:          0  USEFUL:      44261  USELESS:     586070
LLC USEFUL LOAD PREFETCHES:      44261 PREFETCH ISSUED TO LOWER LEVEL:     638021  ACCURACY: 6.93723
LLC TIMELY PREFETCHES:      44261 LATE PREFETCHES: 0 DROPPED PREFETCHES: 0
LLC PREFETCHES SAME FILL-ORIGIN LEVEL: 0 DIFFERENT FILL-ORIGIN LEVEL: 0
LLC AVERAGE MISS LATENCY: 1064.73 cycles
LLC RQ	ACCESS:    2623903	FORWARD:          0	MERGED:          0	TO_CACHE:    2623903
LLC WQ	ACCESS:    1476277	FORWARD:          0	MERGED:          0	TO_CACHE:    1476277
LLC PQ	ACCESS:     890825	FORWARD:          0	MERGED:          0	TO_CACHE:     890825

LLC Dense regions hint to LLC: 0

RAW hits: 6201421
Loads Generated: 33858203
Loads sent to L1D: 27656782
Stores Generated: 12298224
Stores sent to L1D: 12298225
Major fault: 0 Minor fault: 3574
Allocated PAGES: 84331

DRAM Statistics
 CHANNEL 0
 RQ ROW_BUFFER_HIT:     128123  ROW_BUFFER_MISS:    2500220
 DBUS_CONGESTED:        548
 WQ ROW_BUFFER_HIT:     370448  ROW_BUFFER_MISS:     811586  FULL:          0

 AVG_CONGESTED_CYCLE: 5
 All warmup complete: 5
Channel 0 Bank busy for read cycles: 0
Channel 0 Bank busy for write cycles: 0
Channel 0
Rank 0
0banks busy for read cycles: 101534304
0banks busy for write cycles: 208793
1banks busy for read cycles: 115687111
1banks busy for write cycles: 28772460
2banks busy for read cycles: 57133980
2banks busy for write cycles: 14866762
3banks busy for read cycles: 25499292
3banks busy for write cycles: 8918545
4banks busy for read cycles: 10659446
4banks busy for write cycles: 5677668
5banks busy for read cycles: 3918436
5banks busy for write cycles: 3729557
6banks busy for read cycles: 1362005
6banks busy for write cycles: 3503627
7banks busy for read cycles: 442780
7banks busy for write cycles: 7292620
8banks busy for read cycles: 326917
8banks busy for write cycles: 14013576

CPU 0 Branch Prediction Accuracy: 99.7013% MPKI: 0.619647 Average ROB Occupancy at Mispredict: 120.057
Branch types
NOT_BRANCH: 0 0%
BRANCH_DIRECT_JUMP: 0 0%
BRANCH_INDIRECT: 0 0%
BRANCH_CONDITIONAL: 0 0%
BRANCH_DIRECT_CALL: 0 0%
BRANCH_INDIRECT_CALL: 0 0%
BRANCH_RETURN: 0 0%
BRANCH_OTHER: 0 0%


CPU 1 Branch Prediction Accuracy: 99.9129% MPKI: 0.187411 Average ROB Occupancy at Mispredict: 132.097
Branch types
NOT_BRANCH: 0 0%
BRANCH_DIRECT_JUMP: 0 0%
BRANCH_INDIRECT: 0 0%
BRANCH_CONDITIONAL: 0 0%
BRANCH_DIRECT_CALL: 0 0%
BRANCH_INDIRECT_CALL: 0 0%
BRANCH_RETURN: 0 0%
BRANCH_OTHER: 0 0%


CPU 2 Branch Prediction Accuracy: 99.5233% MPKI: 0.980285 Average ROB Occupancy at Mispredict: 156.409
Branch types
NOT_BRANCH: 0 0%
BRANCH_DIRECT_JUMP: 0 0%
BRANCH_INDIRECT: 0 0%
BRANCH_CONDITIONAL: 0 0%
BRANCH_DIRECT_CALL: 0 0%
BRANCH_INDIRECT_CALL: 0 0%
BRANCH_RETURN: 0 0%
BRANCH_OTHER: 0 0%


CPU 3 Branch Prediction Accuracy: 99.7571% MPKI: 0.529002 Average ROB Occupancy at Mispredict: 136.527
Branch types
NOT_BRANCH: 0 0%
BRANCH_DIRECT_JUMP: 0 0%
BRANCH_INDIRECT: 0 0%
BRANCH_CONDITIONAL: 0 0%
BRANCH_DIRECT_CALL: 0 0%
BRANCH_INDIRECT_CALL: 0 0%
BRANCH_RETURN: 0 0%
BRANCH_OTHER: 0 0%

DRAM PAGES: 1048576
Allocated PAGES: 84331
