
*** ChampSim Multicore Out-of-Order Simulator ***

Warmup Instructions: 50000000
Simulation Instructions: 200000000
Number of CPUs: 4
LLC sets: 8192
LLC ways: 16
Off-chip DRAM Size: 4096 MB Channels: 1 Width: 64-bit Data Rate: 6400 MT/s
CPU 0 runs ./traces/spec/433.milc-337B.champsimtrace.xz
.xz
CPU 1 runs ./traces/spec/433.milc-337B.champsimtrace.xz
.xz
CPU 2 runs ./traces/spec/433.milc-337B.champsimtrace.xz
.xz
CPU 3 runs ./traces/spec/433.milc-337B.champsimtrace.xz
.xz
BTB has LRU replacement policy
ITLB has LRU replacement policy
DTLB has LRU replacement policy
STLB has LRU replacement policy
L1I has LRU replacement policy
History Sets: 8
History Ways: 16
BERTI Size: 16
BERTI Stride Size: 8
L1D has LRU replacement policy
Initialize SRRIP state for L2C
Initialize DRRIP state for LLC
BTB has LRU replacement policy
ITLB has LRU replacement policy
DTLB has LRU replacement policy
STLB has LRU replacement policy
L1I has LRU replacement policy
History Sets: 8
History Ways: 16
BERTI Size: 16
BERTI Stride Size: 8
L1D has LRU replacement policy
Initialize SRRIP state for L2C
Initialize DRRIP state for LLC
BTB has LRU replacement policy
ITLB has LRU replacement policy
DTLB has LRU replacement policy
STLB has LRU replacement policy
L1I has LRU replacement policy
History Sets: 8
History Ways: 16
BERTI Size: 16
BERTI Stride Size: 8
L1D has LRU replacement policy
Initialize SRRIP state for L2C
Initialize DRRIP state for LLC
BTB has LRU replacement policy
ITLB has LRU replacement policy
DTLB has LRU replacement policy
STLB has LRU replacement policy
L1I has LRU replacement policy
History Sets: 8
History Ways: 16
BERTI Size: 16
BERTI Stride Size: 8
L1D has LRU replacement policy
Initialize SRRIP state for L2C
Initialize DRRIP state for LLC
Heartbeat CPU 0 instructions: 10000001 cycles: 2586347 heartbeat IPC: 3.86646 cumulative IPC: 3.86646 (Simulation time: 0 hr 3 min 26 sec) 
Heartbeat CPU 1 instructions: 10000001 cycles: 2586478 heartbeat IPC: 3.86626 cumulative IPC: 3.86626 (Simulation time: 0 hr 3 min 26 sec) 
Heartbeat CPU 2 instructions: 10000001 cycles: 2586767 heartbeat IPC: 3.86583 cumulative IPC: 3.86583 (Simulation time: 0 hr 3 min 26 sec) 
Heartbeat CPU 3 instructions: 10000001 cycles: 2586772 heartbeat IPC: 3.86582 cumulative IPC: 3.86582 (Simulation time: 0 hr 3 min 26 sec) 
Heartbeat CPU 0 instructions: 20000002 cycles: 5172512 heartbeat IPC: 3.86673 cumulative IPC: 3.86659 (Simulation time: 0 hr 6 min 54 sec) 
Heartbeat CPU 1 instructions: 20000002 cycles: 5172606 heartbeat IPC: 3.86679 cumulative IPC: 3.86652 (Simulation time: 0 hr 6 min 54 sec) 
Heartbeat CPU 2 instructions: 20000002 cycles: 5173029 heartbeat IPC: 3.86658 cumulative IPC: 3.86621 (Simulation time: 0 hr 6 min 54 sec) 
Heartbeat CPU 3 instructions: 20000002 cycles: 5173509 heartbeat IPC: 3.86587 cumulative IPC: 3.86585 (Simulation time: 0 hr 6 min 54 sec) 
Heartbeat CPU 0 instructions: 30000001 cycles: 7759003 heartbeat IPC: 3.86624 cumulative IPC: 3.86648 (Simulation time: 0 hr 10 min 31 sec) 
Heartbeat CPU 1 instructions: 30000001 cycles: 7759259 heartbeat IPC: 3.866 cumulative IPC: 3.86635 (Simulation time: 0 hr 10 min 31 sec) 
Heartbeat CPU 2 instructions: 30000001 cycles: 7759647 heartbeat IPC: 3.86605 cumulative IPC: 3.86616 (Simulation time: 0 hr 10 min 31 sec) 
Heartbeat CPU 3 instructions: 30000001 cycles: 7760411 heartbeat IPC: 3.86563 cumulative IPC: 3.86577 (Simulation time: 0 hr 10 min 31 sec) 
Heartbeat CPU 0 instructions: 40000001 cycles: 10345191 heartbeat IPC: 3.86669 cumulative IPC: 3.86653 (Simulation time: 0 hr 14 min 4 sec) 
Heartbeat CPU 1 instructions: 40000001 cycles: 10345528 heartbeat IPC: 3.86657 cumulative IPC: 3.86641 (Simulation time: 0 hr 14 min 4 sec) 
Heartbeat CPU 2 instructions: 40000001 cycles: 10346164 heartbeat IPC: 3.8662 cumulative IPC: 3.86617 (Simulation time: 0 hr 14 min 4 sec) 
Heartbeat CPU 3 instructions: 40000001 cycles: 10347128 heartbeat IPC: 3.8659 cumulative IPC: 3.86581 (Simulation time: 0 hr 14 min 4 sec) 
Heartbeat CPU 0 instructions: 50000000 cycles: 12931323 heartbeat IPC: 3.86678 cumulative IPC: 3.86658 (Simulation time: 0 hr 17 min 40 sec) 
Heartbeat CPU 1 instructions: 50000000 cycles: 12931721 heartbeat IPC: 3.86669 cumulative IPC: 3.86646 (Simulation time: 0 hr 17 min 40 sec) 
Heartbeat CPU 2 instructions: 50000000 cycles: 12932692 heartbeat IPC: 3.86619 cumulative IPC: 3.86617 (Simulation time: 0 hr 17 min 40 sec) 
Heartbeat CPU 3 instructions: 50000000 cycles: 12933773 heartbeat IPC: 3.86601 cumulative IPC: 3.86585 (Simulation time: 0 hr 17 min 41 sec) 

Warmup complete CPU 0 instructions: 50009589 cycles: 12933774 (Simulation time: 0 hr 17 min 41 sec) 
Warmup complete CPU 1 instructions: 50008018 cycles: 12933774 (Simulation time: 0 hr 17 min 41 sec) 
Warmup complete CPU 2 instructions: 50004253 cycles: 12933774 (Simulation time: 0 hr 17 min 41 sec) 
Warmup complete CPU 3 instructions: 50000004 cycles: 12933774 (Simulation time: 0 hr 17 min 41 sec) 

Heartbeat CPU 2 instructions: 60000001 cycles: 31463350 heartbeat IPC: 0.539646 cumulative IPC: 0.539448 (Simulation time: 0 hr 22 min 59 sec) 
Heartbeat CPU 0 instructions: 60000003 cycles: 31563715 heartbeat IPC: 0.5367 cumulative IPC: 0.536256 (Simulation time: 0 hr 23 min 1 sec) 
Heartbeat CPU 3 instructions: 60000003 cycles: 31594726 heartbeat IPC: 0.535878 cumulative IPC: 0.535878 (Simulation time: 0 hr 23 min 1 sec) 
Heartbeat CPU 1 instructions: 60000001 cycles: 31695911 heartbeat IPC: 0.53293 cumulative IPC: 0.532561 (Simulation time: 0 hr 23 min 3 sec) 
Heartbeat CPU 2 instructions: 70000003 cycles: 51837851 heartbeat IPC: 0.49081 cumulative IPC: 0.513976 (Simulation time: 0 hr 27 min 45 sec) 
Heartbeat CPU 0 instructions: 70000003 cycles: 51884164 heartbeat IPC: 0.492115 cumulative IPC: 0.513228 (Simulation time: 0 hr 27 min 46 sec) 
Heartbeat CPU 3 instructions: 70000003 cycles: 52012862 heartbeat IPC: 0.489761 cumulative IPC: 0.511783 (Simulation time: 0 hr 27 min 48 sec) 
Heartbeat CPU 1 instructions: 70000003 cycles: 52179044 heartbeat IPC: 0.488207 cumulative IPC: 0.509411 (Simulation time: 0 hr 27 min 51 sec) 
Heartbeat CPU 2 instructions: 80000000 cycles: 73337312 heartbeat IPC: 0.465128 cumulative IPC: 0.496589 (Simulation time: 0 hr 32 min 33 sec) 
Heartbeat CPU 3 instructions: 80000000 cycles: 73360700 heartbeat IPC: 0.468431 cumulative IPC: 0.496467 (Simulation time: 0 hr 32 min 33 sec) 
Heartbeat CPU 0 instructions: 80000000 cycles: 73391123 heartbeat IPC: 0.464966 cumulative IPC: 0.496059 (Simulation time: 0 hr 32 min 34 sec) 
Heartbeat CPU 1 instructions: 80000003 cycles: 73937113 heartbeat IPC: 0.4596 cumulative IPC: 0.491645 (Simulation time: 0 hr 32 min 41 sec) 
Heartbeat CPU 3 instructions: 90000001 cycles: 94773793 heartbeat IPC: 0.467004 cumulative IPC: 0.488758 (Simulation time: 0 hr 37 min 34 sec) 
Heartbeat CPU 2 instructions: 90000000 cycles: 95002228 heartbeat IPC: 0.461576 cumulative IPC: 0.487346 (Simulation time: 0 hr 37 min 37 sec) 
Heartbeat CPU 0 instructions: 90000003 cycles: 95062823 heartbeat IPC: 0.461431 cumulative IPC: 0.486922 (Simulation time: 0 hr 37 min 37 sec) 
Heartbeat CPU 1 instructions: 90000003 cycles: 95844294 heartbeat IPC: 0.456471 cumulative IPC: 0.482351 (Simulation time: 0 hr 37 min 47 sec) 
Heartbeat CPU 3 instructions: 100000000 cycles: 116736638 heartbeat IPC: 0.455314 cumulative IPC: 0.481682 (Simulation time: 0 hr 42 min 49 sec) 
Heartbeat CPU 0 instructions: 100000000 cycles: 116936926 heartbeat IPC: 0.457161 cumulative IPC: 0.480662 (Simulation time: 0 hr 42 min 52 sec) 
Heartbeat CPU 2 instructions: 100000000 cycles: 116995262 heartbeat IPC: 0.454689 cumulative IPC: 0.480444 (Simulation time: 0 hr 42 min 53 sec) 
Heartbeat CPU 1 instructions: 100000002 cycles: 117862536 heartbeat IPC: 0.454169 cumulative IPC: 0.476437 (Simulation time: 0 hr 43 min 5 sec) 
Heartbeat CPU 0 instructions: 110000000 cycles: 138924412 heartbeat IPC: 0.454804 cumulative IPC: 0.47615 (Simulation time: 0 hr 48 min 3 sec) 
Heartbeat CPU 3 instructions: 110000000 cycles: 139075120 heartbeat IPC: 0.447658 cumulative IPC: 0.475657 (Simulation time: 0 hr 48 min 6 sec) 
Heartbeat CPU 1 instructions: 110000000 cycles: 139177991 heartbeat IPC: 0.469143 cumulative IPC: 0.475206 (Simulation time: 0 hr 48 min 7 sec) 
Heartbeat CPU 2 instructions: 110000000 cycles: 139419092 heartbeat IPC: 0.445954 cumulative IPC: 0.47433 (Simulation time: 0 hr 48 min 10 sec) 
Heartbeat CPU 1 instructions: 120000003 cycles: 160428668 heartbeat IPC: 0.470573 cumulative IPC: 0.474538 (Simulation time: 0 hr 53 min 16 sec) 
Heartbeat CPU 0 instructions: 120000003 cycles: 160874448 heartbeat IPC: 0.45558 cumulative IPC: 0.473098 (Simulation time: 0 hr 53 min 22 sec) 
Heartbeat CPU 3 instructions: 120000003 cycles: 161144705 heartbeat IPC: 0.453112 cumulative IPC: 0.4723 (Simulation time: 0 hr 53 min 25 sec) 
Heartbeat CPU 2 instructions: 120000000 cycles: 161920870 heartbeat IPC: 0.444409 cumulative IPC: 0.469811 (Simulation time: 0 hr 53 min 36 sec) 
Heartbeat CPU 1 instructions: 130000002 cycles: 186469313 heartbeat IPC: 0.384015 cumulative IPC: 0.460954 (Simulation time: 0 hr 59 min 22 sec) 
Heartbeat CPU 0 instructions: 130000003 cycles: 187338128 heartbeat IPC: 0.377876 cumulative IPC: 0.458649 (Simulation time: 0 hr 59 min 33 sec) 
Heartbeat CPU 3 instructions: 130000002 cycles: 188816908 heartbeat IPC: 0.361373 cumulative IPC: 0.454847 (Simulation time: 0 hr 59 min 53 sec) 
Heartbeat CPU 2 instructions: 130000002 cycles: 189665628 heartbeat IPC: 0.360429 cumulative IPC: 0.452639 (Simulation time: 1 hr 0 min 4 sec) 
Heartbeat CPU 1 instructions: 140000002 cycles: 217941668 heartbeat IPC: 0.317739 cumulative IPC: 0.438968 (Simulation time: 1 hr 6 min 4 sec) 
Heartbeat CPU 0 instructions: 140000002 cycles: 218319415 heartbeat IPC: 0.322775 cumulative IPC: 0.438153 (Simulation time: 1 hr 6 min 9 sec) 
Heartbeat CPU 3 instructions: 140000002 cycles: 219994626 heartbeat IPC: 0.320742 cumulative IPC: 0.434655 (Simulation time: 1 hr 6 min 28 sec) 
Heartbeat CPU 2 instructions: 140000002 cycles: 220356478 heartbeat IPC: 0.32583 cumulative IPC: 0.433876 (Simulation time: 1 hr 6 min 34 sec) 
Heartbeat CPU 0 instructions: 150000002 cycles: 247874329 heartbeat IPC: 0.338353 cumulative IPC: 0.425599 (Simulation time: 1 hr 12 min 33 sec) 
Heartbeat CPU 1 instructions: 150000003 cycles: 248046354 heartbeat IPC: 0.332174 cumulative IPC: 0.425294 (Simulation time: 1 hr 12 min 35 sec) 
Heartbeat CPU 2 instructions: 150000000 cycles: 249827456 heartbeat IPC: 0.339317 cumulative IPC: 0.422112 (Simulation time: 1 hr 12 min 58 sec) 
Heartbeat CPU 3 instructions: 150000000 cycles: 250078738 heartbeat IPC: 0.332401 cumulative IPC: 0.421683 (Simulation time: 1 hr 13 min 2 sec) 
Heartbeat CPU 0 instructions: 160000001 cycles: 277293575 heartbeat IPC: 0.339914 cumulative IPC: 0.416063 (Simulation time: 1 hr 18 min 52 sec) 
Heartbeat CPU 1 instructions: 160000001 cycles: 277878435 heartbeat IPC: 0.33521 cumulative IPC: 0.415151 (Simulation time: 1 hr 19 min 0 sec) 
Heartbeat CPU 2 instructions: 160000001 cycles: 279166355 heartbeat IPC: 0.340844 cumulative IPC: 0.413157 (Simulation time: 1 hr 19 min 18 sec) 
Heartbeat CPU 3 instructions: 160000001 cycles: 280056453 heartbeat IPC: 0.333581 cumulative IPC: 0.411796 (Simulation time: 1 hr 19 min 31 sec) 
Heartbeat CPU 0 instructions: 170000003 cycles: 306771673 heartbeat IPC: 0.339235 cumulative IPC: 0.408356 (Simulation time: 1 hr 25 min 27 sec) 
Heartbeat CPU 1 instructions: 170000003 cycles: 308106579 heartbeat IPC: 0.330818 cumulative IPC: 0.406514 (Simulation time: 1 hr 25 min 43 sec) 
Heartbeat CPU 2 instructions: 170000003 cycles: 308605053 heartbeat IPC: 0.339689 cumulative IPC: 0.405842 (Simulation time: 1 hr 25 min 50 sec) 
Heartbeat CPU 3 instructions: 170000003 cycles: 310230725 heartbeat IPC: 0.331408 cumulative IPC: 0.403637 (Simulation time: 1 hr 26 min 10 sec) 
Heartbeat CPU 0 instructions: 180000003 cycles: 336606911 heartbeat IPC: 0.335174 cumulative IPC: 0.40161 (Simulation time: 1 hr 31 min 54 sec) 
Heartbeat CPU 2 instructions: 180000001 cycles: 338231720 heartbeat IPC: 0.337534 cumulative IPC: 0.399621 (Simulation time: 1 hr 32 min 15 sec) 
Heartbeat CPU 1 instructions: 180000001 cycles: 338310951 heartbeat IPC: 0.331078 cumulative IPC: 0.399512 (Simulation time: 1 hr 32 min 16 sec) 
Heartbeat CPU 3 instructions: 180000002 cycles: 340777861 heartbeat IPC: 0.327363 cumulative IPC: 0.39653 (Simulation time: 1 hr 32 min 48 sec) 
Heartbeat CPU 0 instructions: 190000002 cycles: 366203956 heartbeat IPC: 0.337872 cumulative IPC: 0.39627 (Simulation time: 1 hr 38 min 17 sec) 
Heartbeat CPU 2 instructions: 190000002 cycles: 367991983 heartbeat IPC: 0.336019 cumulative IPC: 0.39429 (Simulation time: 1 hr 38 min 37 sec) 
Heartbeat CPU 1 instructions: 190000000 cycles: 368442685 heartbeat IPC: 0.331876 cumulative IPC: 0.393779 (Simulation time: 1 hr 38 min 42 sec) 
Heartbeat CPU 3 instructions: 190000002 cycles: 371026694 heartbeat IPC: 0.330591 cumulative IPC: 0.39096 (Simulation time: 1 hr 39 min 15 sec) 
Heartbeat CPU 0 instructions: 200000001 cycles: 400973558 heartbeat IPC: 0.287608 cumulative IPC: 0.386534 (Simulation time: 1 hr 44 min 59 sec) 
Heartbeat CPU 2 instructions: 200000001 cycles: 401848767 heartbeat IPC: 0.295362 cumulative IPC: 0.385677 (Simulation time: 1 hr 45 min 8 sec) 
Heartbeat CPU 1 instructions: 200000001 cycles: 403130495 heartbeat IPC: 0.288286 cumulative IPC: 0.384401 (Simulation time: 1 hr 45 min 21 sec) 
Heartbeat CPU 3 instructions: 200000001 cycles: 404404478 heartbeat IPC: 0.2996 cumulative IPC: 0.38317 (Simulation time: 1 hr 45 min 33 sec) 
Heartbeat CPU 0 instructions: 210000003 cycles: 449686228 heartbeat IPC: 0.205285 cumulative IPC: 0.366318 (Simulation time: 1 hr 52 min 7 sec) 
Heartbeat CPU 2 instructions: 210000003 cycles: 450481106 heartbeat IPC: 0.205625 cumulative IPC: 0.365665 (Simulation time: 1 hr 52 min 14 sec) 
Heartbeat CPU 1 instructions: 210000003 cycles: 453165698 heartbeat IPC: 0.199859 cumulative IPC: 0.363427 (Simulation time: 1 hr 52 min 40 sec) 
Heartbeat CPU 3 instructions: 210000001 cycles: 454947127 heartbeat IPC: 0.197853 cumulative IPC: 0.36198 (Simulation time: 1 hr 52 min 56 sec) 
Heartbeat CPU 0 instructions: 220000000 cycles: 498119902 heartbeat IPC: 0.206468 cumulative IPC: 0.350361 (Simulation time: 1 hr 59 min 11 sec) 
Heartbeat CPU 2 instructions: 220000000 cycles: 499011748 heartbeat IPC: 0.206055 cumulative IPC: 0.349729 (Simulation time: 1 hr 59 min 17 sec) 
Heartbeat CPU 1 instructions: 220000000 cycles: 503379846 heartbeat IPC: 0.199147 cumulative IPC: 0.346607 (Simulation time: 1 hr 59 min 57 sec) 
Heartbeat CPU 3 instructions: 220000000 cycles: 504155446 heartbeat IPC: 0.203218 cumulative IPC: 0.346076 (Simulation time: 2 hr 0 min 5 sec) 
Heartbeat CPU 0 instructions: 230000001 cycles: 546570405 heartbeat IPC: 0.206396 cumulative IPC: 0.33729 (Simulation time: 2 hr 6 min 19 sec) 
Heartbeat CPU 2 instructions: 230000001 cycles: 548187940 heartbeat IPC: 0.20335 cumulative IPC: 0.336281 (Simulation time: 2 hr 6 min 35 sec) 
Heartbeat CPU 1 instructions: 230000001 cycles: 553376080 heartbeat IPC: 0.200015 cumulative IPC: 0.333046 (Simulation time: 2 hr 7 min 20 sec) 
Heartbeat CPU 3 instructions: 230000001 cycles: 553388485 heartbeat IPC: 0.203116 cumulative IPC: 0.333053 (Simulation time: 2 hr 7 min 20 sec) 
Heartbeat CPU 0 instructions: 240000002 cycles: 634040567 heartbeat IPC: 0.114325 cumulative IPC: 0.30589 (Simulation time: 2 hr 21 min 15 sec) 
Heartbeat CPU 2 instructions: 240000002 cycles: 639233697 heartbeat IPC: 0.109835 cumulative IPC: 0.303362 (Simulation time: 2 hr 22 min 5 sec) 
Heartbeat CPU 3 instructions: 240000002 cycles: 653837305 heartbeat IPC: 0.0995532 cumulative IPC: 0.296456 (Simulation time: 2 hr 24 min 46 sec) 
Heartbeat CPU 1 instructions: 240000002 cycles: 657776408 heartbeat IPC: 0.0957851 cumulative IPC: 0.294633 (Simulation time: 2 hr 25 min 32 sec) 
Heartbeat CPU 0 instructions: 250000001 cycles: 733880151 heartbeat IPC: 0.100161 cumulative IPC: 0.2774 (Simulation time: 2 hr 39 min 53 sec) 
Finished CPU 0 instructions: 200000001 cycles: 720965860 cumulative IPC: 0.277406 (Simulation time: 2 hr 39 min 53 sec) 
Heartbeat CPU 2 instructions: 250000001 cycles: 736598043 heartbeat IPC: 0.102707 cumulative IPC: 0.276365 (Simulation time: 2 hr 40 min 25 sec) 
Finished CPU 2 instructions: 200000002 cycles: 723670675 cumulative IPC: 0.276369 (Simulation time: 2 hr 40 min 25 sec) 
Heartbeat CPU 3 instructions: 250000001 cycles: 745108596 heartbeat IPC: 0.109563 cumulative IPC: 0.273159 (Simulation time: 2 hr 42 min 20 sec) 
Finished CPU 3 instructions: 200000001 cycles: 732174823 cumulative IPC: 0.273159 (Simulation time: 2 hr 42 min 20 sec) 
Heartbeat CPU 1 instructions: 250000001 cycles: 748988822 heartbeat IPC: 0.109634 cumulative IPC: 0.271708 (Simulation time: 2 hr 43 min 10 sec) 
Finished CPU 1 instructions: 200000000 cycles: 736064646 cumulative IPC: 0.271715 (Simulation time: 2 hr 43 min 10 sec) 

ChampSim completed all CPUs

Total Simulation Statistics (not including warmup)

CPU 0 cumulative IPC: 0.281825 instructions: 207441361 cycles: 736064646
ITLB TOTAL     ACCESS:   33345639  HIT:   33345626  MISS:         13  HIT %:        100  MISS %: 3.89856e-05   MPKI: 6.26683e-05
ITLB LOAD      ACCESS:          0  HIT:          0  MISS:          0  HIT %:       -nan  MISS %:       -nan   MPKI: 0
ITLB RFO       ACCESS:          0  HIT:          0  MISS:          0  HIT %:       -nan  MISS %:       -nan   MPKI: 0
ITLB PREFETCH  ACCESS:          0  HIT:          0  MISS:          0  HIT %:       -nan  MISS %:       -nan   MPKI: 0
ITLB WRITEBACK ACCESS:          0  HIT:          0  MISS:          0  HIT %:       -nan  MISS %:       -nan   MPKI: 0
DTLB TOTAL     ACCESS:   24886604  HIT:   24451751  MISS:     434853  HIT %:    98.2527  MISS %:    1.74734   MPKI: 2.09627
DTLB LOAD      ACCESS:          0  HIT:          0  MISS:          0  HIT %:       -nan  MISS %:       -nan   MPKI: 0
DTLB RFO       ACCESS:          0  HIT:          0  MISS:          0  HIT %:       -nan  MISS %:       -nan   MPKI: 0
DTLB PREFETCH  ACCESS:          0  HIT:          0  MISS:          0  HIT %:       -nan  MISS %:       -nan   MPKI: 0
DTLB WRITEBACK ACCESS:          0  HIT:          0  MISS:          0  HIT %:       -nan  MISS %:       -nan   MPKI: 0
STLB TOTAL     ACCESS:    9822480  HIT:    9387194  MISS:     435286  HIT %:    95.5685  MISS %:    4.43153   MPKI: 2.09836
STLB LOAD      ACCESS:          0  HIT:          0  MISS:          0  HIT %:       -nan  MISS %:       -nan   MPKI: 0
STLB RFO       ACCESS:          0  HIT:          0  MISS:          0  HIT %:       -nan  MISS %:       -nan   MPKI: 0
STLB PREFETCH  ACCESS:          0  HIT:          0  MISS:          0  HIT %:       -nan  MISS %:       -nan   MPKI: 0
STLB WRITEBACK ACCESS:          0  HIT:          0  MISS:          0  HIT %:       -nan  MISS %:       -nan   MPKI: 0
L1D TOTAL     ACCESS:   39513678  HIT:   34639701  MISS:    4873977  HIT %:    87.6651  MISS %:    12.3349   MPKI: 23.4957
L1D LOAD      ACCESS:   17947038  HIT:   16684030  MISS:    1263008  HIT %:    92.9626  MISS %:    7.03742   MPKI: 6.08851
L1D RFO       ACCESS:    8237619  HIT:    6806662  MISS:    1430957  HIT %:     82.629  MISS %:     17.371   MPKI: 6.89813
L1D PREFETCH  ACCESS:   13329021  HIT:   11149009  MISS:    2180012  HIT %:    83.6446  MISS %:    16.3554   MPKI: 10.5091
L1D WRITEBACK ACCESS:          0  HIT:          0  MISS:          0  HIT %:       -nan  MISS %:       -nan   MPKI: 0
L1I TOTAL     ACCESS:   46237949  HIT:   46237844  MISS:        105  HIT %:    99.9998  MISS %: 0.000227086   MPKI: 0.000506167
L1I LOAD      ACCESS:   46237949  HIT:   46237844  MISS:        105  HIT %:    99.9998  MISS %: 0.000227086   MPKI: 0.000506167
L1I RFO       ACCESS:          0  HIT:          0  MISS:          0  HIT %:       -nan  MISS %:       -nan   MPKI: 0
L1I PREFETCH  ACCESS:          0  HIT:          0  MISS:          0  HIT %:       -nan  MISS %:       -nan   MPKI: 0
L1I WRITEBACK ACCESS:          0  HIT:          0  MISS:          0  HIT %:       -nan  MISS %:       -nan   MPKI: 0
L2C TOTAL     ACCESS:   12175979  HIT:    6234560  MISS:    5941419  HIT %:    51.2038  MISS %:    48.7962   MPKI: 28.6414
L2C LOAD      ACCESS:     993993  HIT:     604956  MISS:     389037  HIT %:    60.8612  MISS %:    39.1388   MPKI: 1.87541
L2C RFO       ACCESS:    1430957  HIT:         15  MISS:    1430942  HIT %: 0.00104825  MISS %:     99.999   MPKI: 6.89806
L2C PREFETCH  ACCESS:    6501936  HIT:    2700035  MISS:    3801901  HIT %:    41.5266  MISS %:    58.4734   MPKI: 18.3276
L2C WRITEBACK ACCESS:    1910451  HIT:    1645143  MISS:     265308  HIT %:    86.1128  MISS %:    13.8872   MPKI: 1.27895
PSCL5 TOTAL     ACCESS:    1086200  HIT:    1086200  MISS:          0  HIT %:        100  MISS %:          0   MPKI: 0
PSCL5 LOAD      ACCESS:          0  HIT:          0  MISS:          0  HIT %:       -nan  MISS %:       -nan   MPKI: 0
PSCL5 RFO       ACCESS:          0  HIT:          0  MISS:          0  HIT %:       -nan  MISS %:       -nan   MPKI: 0
PSCL5 PREFETCH  ACCESS:          0  HIT:          0  MISS:          0  HIT %:       -nan  MISS %:       -nan   MPKI: 0
PSCL5 WRITEBACK ACCESS:          0  HIT:          0  MISS:          0  HIT %:       -nan  MISS %:       -nan   MPKI: 0
PSCL4 TOTAL     ACCESS:    1086200  HIT:    1086200  MISS:          0  HIT %:        100  MISS %:          0   MPKI: 0
PSCL4 LOAD      ACCESS:          0  HIT:          0  MISS:          0  HIT %:       -nan  MISS %:       -nan   MPKI: 0
PSCL4 RFO       ACCESS:          0  HIT:          0  MISS:          0  HIT %:       -nan  MISS %:       -nan   MPKI: 0
PSCL4 PREFETCH  ACCESS:          0  HIT:          0  MISS:          0  HIT %:       -nan  MISS %:       -nan   MPKI: 0
PSCL4 WRITEBACK ACCESS:          0  HIT:          0  MISS:          0  HIT %:       -nan  MISS %:       -nan   MPKI: 0
PSCL3 TOTAL     ACCESS:    1086200  HIT:    1086200  MISS:          0  HIT %:        100  MISS %:          0   MPKI: 0
PSCL3 LOAD      ACCESS:          0  HIT:          0  MISS:          0  HIT %:       -nan  MISS %:       -nan   MPKI: 0
PSCL3 RFO       ACCESS:          0  HIT:          0  MISS:          0  HIT %:       -nan  MISS %:       -nan   MPKI: 0
PSCL3 PREFETCH  ACCESS:          0  HIT:          0  MISS:          0  HIT %:       -nan  MISS %:       -nan   MPKI: 0
PSCL3 WRITEBACK ACCESS:          0  HIT:          0  MISS:          0  HIT %:       -nan  MISS %:       -nan   MPKI: 0
PSCL2 TOTAL     ACCESS:     833290  HIT:     832387  MISS:        903  HIT %:    99.8916  MISS %:   0.108366   MPKI: 0.00435304
PSCL2 LOAD      ACCESS:          0  HIT:          0  MISS:          0  HIT %:       -nan  MISS %:       -nan   MPKI: 0
PSCL2 RFO       ACCESS:          0  HIT:          0  MISS:          0  HIT %:       -nan  MISS %:       -nan   MPKI: 0
PSCL2 PREFETCH  ACCESS:          0  HIT:          0  MISS:          0  HIT %:       -nan  MISS %:       -nan   MPKI: 0
PSCL2 WRITEBACK ACCESS:          0  HIT:          0  MISS:          0  HIT %:       -nan  MISS %:       -nan   MPKI: 0
LLC TOTAL     ACCESS:    7581609  HIT:    1851963  MISS:    5729646  HIT %:     24.427  MISS %:     75.573   MPKI: 27.6206
LLC LOAD      ACCESS:     203086  HIT:        149  MISS:     202937  HIT %:  0.0733679  MISS %:    99.9266   MPKI: 0.978286
LLC RFO       ACCESS:    1430942  HIT:       2526  MISS:    1428416  HIT %:   0.176527  MISS %:    99.8235   MPKI: 6.88588
LLC PREFETCH  ACCESS:    3987852  HIT:       4231  MISS:    3983621  HIT %:   0.106097  MISS %:    99.8939   MPKI: 19.2036
LLC WRITEBACK ACCESS:    1905498  HIT:    1836375  MISS:      69123  HIT %:    96.3724  MISS %:    3.62756   MPKI: 0.333217

RAW hits: 1074195
Loads Generated: 53358520
Loads sent to L1D: 52284325
Stores Generated: 16106862
Stores sent to L1D: 16106862

CPU 1 cumulative IPC: 0.271715 instructions: 200000000 cycles: 736064646
ITLB TOTAL     ACCESS:   32242344  HIT:   32242331  MISS:         13  HIT %:        100  MISS %: 4.03196e-05   MPKI: 6.5e-05
ITLB LOAD      ACCESS:          0  HIT:          0  MISS:          0  HIT %:       -nan  MISS %:       -nan   MPKI: 0
ITLB RFO       ACCESS:          0  HIT:          0  MISS:          0  HIT %:       -nan  MISS %:       -nan   MPKI: 0
ITLB PREFETCH  ACCESS:          0  HIT:          0  MISS:          0  HIT %:       -nan  MISS %:       -nan   MPKI: 0
ITLB WRITEBACK ACCESS:          0  HIT:          0  MISS:          0  HIT %:       -nan  MISS %:       -nan   MPKI: 0
DTLB TOTAL     ACCESS:   24107396  HIT:   23689728  MISS:     417668  HIT %:    98.2675  MISS %:    1.73253   MPKI: 2.08834
DTLB LOAD      ACCESS:          0  HIT:          0  MISS:          0  HIT %:       -nan  MISS %:       -nan   MPKI: 0
DTLB RFO       ACCESS:          0  HIT:          0  MISS:          0  HIT %:       -nan  MISS %:       -nan   MPKI: 0
DTLB PREFETCH  ACCESS:          0  HIT:          0  MISS:          0  HIT %:       -nan  MISS %:       -nan   MPKI: 0
DTLB WRITEBACK ACCESS:          0  HIT:          0  MISS:          0  HIT %:       -nan  MISS %:       -nan   MPKI: 0
STLB TOTAL     ACCESS:    9017568  HIT:    8599365  MISS:     418203  HIT %:    95.3624  MISS %:    4.63765   MPKI: 2.09102
STLB LOAD      ACCESS:          0  HIT:          0  MISS:          0  HIT %:       -nan  MISS %:       -nan   MPKI: 0
STLB RFO       ACCESS:          0  HIT:          0  MISS:          0  HIT %:       -nan  MISS %:       -nan   MPKI: 0
STLB PREFETCH  ACCESS:          0  HIT:          0  MISS:          0  HIT %:       -nan  MISS %:       -nan   MPKI: 0
STLB WRITEBACK ACCESS:          0  HIT:          0  MISS:          0  HIT %:       -nan  MISS %:       -nan   MPKI: 0
L1D TOTAL     ACCESS:   37722407  HIT:   32986781  MISS:    4735626  HIT %:    87.4461  MISS %:    12.5539   MPKI: 23.6781
L1D LOAD      ACCESS:   17286633  HIT:   16009303  MISS:    1277330  HIT %:    92.6109  MISS %:    7.38912   MPKI: 6.38665
L1D RFO       ACCESS:    8166687  HIT:    6772936  MISS:    1393751  HIT %:    82.9337  MISS %:    17.0663   MPKI: 6.96875
L1D PREFETCH  ACCESS:   12269087  HIT:   10204542  MISS:    2064545  HIT %:    83.1728  MISS %:    16.8272   MPKI: 10.3227
L1D WRITEBACK ACCESS:          0  HIT:          0  MISS:          0  HIT %:       -nan  MISS %:       -nan   MPKI: 0
L1I TOTAL     ACCESS:   44643749  HIT:   44643644  MISS:        105  HIT %:    99.9998  MISS %: 0.000235195   MPKI: 0.000525
L1I LOAD      ACCESS:   44643749  HIT:   44643644  MISS:        105  HIT %:    99.9998  MISS %: 0.000235195   MPKI: 0.000525
L1I RFO       ACCESS:          0  HIT:          0  MISS:          0  HIT %:       -nan  MISS %:       -nan   MPKI: 0
L1I PREFETCH  ACCESS:          0  HIT:          0  MISS:          0  HIT %:       -nan  MISS %:       -nan   MPKI: 0
L1I WRITEBACK ACCESS:          0  HIT:          0  MISS:          0  HIT %:       -nan  MISS %:       -nan   MPKI: 0
L2C TOTAL     ACCESS:   11845020  HIT:    6063501  MISS:    5781519  HIT %:    51.1903  MISS %:    48.8097   MPKI: 28.9076
L2C LOAD      ACCESS:    1017456  HIT:     613761  MISS:     403695  HIT %:    60.3231  MISS %:    39.6769   MPKI: 2.01848
L2C RFO       ACCESS:    1393751  HIT:         19  MISS:    1393732  HIT %: 0.00136323  MISS %:    99.9986   MPKI: 6.96866
L2C PREFETCH  ACCESS:    6289086  HIT:    2613163  MISS:    3675923  HIT %:    41.5508  MISS %:    58.4492   MPKI: 18.3796
L2C WRITEBACK ACCESS:    1873248  HIT:    1617119  MISS:     256129  HIT %:     86.327  MISS %:     13.673   MPKI: 1.28065
PSCL5 TOTAL     ACCESS:    1038583  HIT:    1038583  MISS:          0  HIT %:        100  MISS %:          0   MPKI: 0
PSCL5 LOAD      ACCESS:          0  HIT:          0  MISS:          0  HIT %:       -nan  MISS %:       -nan   MPKI: 0
PSCL5 RFO       ACCESS:          0  HIT:          0  MISS:          0  HIT %:       -nan  MISS %:       -nan   MPKI: 0
PSCL5 PREFETCH  ACCESS:          0  HIT:          0  MISS:          0  HIT %:       -nan  MISS %:       -nan   MPKI: 0
PSCL5 WRITEBACK ACCESS:          0  HIT:          0  MISS:          0  HIT %:       -nan  MISS %:       -nan   MPKI: 0
PSCL4 TOTAL     ACCESS:    1038583  HIT:    1038583  MISS:          0  HIT %:        100  MISS %:          0   MPKI: 0
PSCL4 LOAD      ACCESS:          0  HIT:          0  MISS:          0  HIT %:       -nan  MISS %:       -nan   MPKI: 0
PSCL4 RFO       ACCESS:          0  HIT:          0  MISS:          0  HIT %:       -nan  MISS %:       -nan   MPKI: 0
PSCL4 PREFETCH  ACCESS:          0  HIT:          0  MISS:          0  HIT %:       -nan  MISS %:       -nan   MPKI: 0
PSCL4 WRITEBACK ACCESS:          0  HIT:          0  MISS:          0  HIT %:       -nan  MISS %:       -nan   MPKI: 0
PSCL3 TOTAL     ACCESS:    1038583  HIT:    1038583  MISS:          0  HIT %:        100  MISS %:          0   MPKI: 0
PSCL3 LOAD      ACCESS:          0  HIT:          0  MISS:          0  HIT %:       -nan  MISS %:       -nan   MPKI: 0
PSCL3 RFO       ACCESS:          0  HIT:          0  MISS:          0  HIT %:       -nan  MISS %:       -nan   MPKI: 0
PSCL3 PREFETCH  ACCESS:          0  HIT:          0  MISS:          0  HIT %:       -nan  MISS %:       -nan   MPKI: 0
PSCL3 WRITEBACK ACCESS:          0  HIT:          0  MISS:          0  HIT %:       -nan  MISS %:       -nan   MPKI: 0
PSCL2 TOTAL     ACCESS:     804963  HIT:     804095  MISS:        868  HIT %:    99.8922  MISS %:   0.107831   MPKI: 0.00434
PSCL2 LOAD      ACCESS:          0  HIT:          0  MISS:          0  HIT %:       -nan  MISS %:       -nan   MPKI: 0
PSCL2 RFO       ACCESS:          0  HIT:          0  MISS:          0  HIT %:       -nan  MISS %:       -nan   MPKI: 0
PSCL2 PREFETCH  ACCESS:          0  HIT:          0  MISS:          0  HIT %:       -nan  MISS %:       -nan   MPKI: 0
PSCL2 WRITEBACK ACCESS:          0  HIT:          0  MISS:          0  HIT %:       -nan  MISS %:       -nan   MPKI: 0
LLC TOTAL     ACCESS:    7393970  HIT:     249867  MISS:    7144103  HIT %:    3.37933  MISS %:    96.6207   MPKI: 35.7205
LLC LOAD      ACCESS:     213439  HIT:         71  MISS:     213368  HIT %:  0.0332648  MISS %:    99.9667   MPKI: 1.06684
LLC RFO       ACCESS:    1393732  HIT:       1229  MISS:    1392503  HIT %:  0.0881805  MISS %:    99.9118   MPKI: 6.96251
LLC PREFETCH  ACCESS:    3866179  HIT:       2309  MISS:    3863870  HIT %:   0.059723  MISS %:    99.9403   MPKI: 19.3194
LLC WRITEBACK ACCESS:    1868580  HIT:     245782  MISS:    1622798  HIT %:    13.1534  MISS %:    86.8466   MPKI: 8.11399

RAW hits: 1075138
Loads Generated: 51506434
Loads sent to L1D: 50431297
Stores Generated: 15792669
Stores sent to L1D: 15792671

CPU 2 cumulative IPC: 0.280632 instructions: 206563607 cycles: 736064646
ITLB TOTAL     ACCESS:   33214768  HIT:   33214755  MISS:         13  HIT %:        100  MISS %: 3.91392e-05   MPKI: 6.29346e-05
ITLB LOAD      ACCESS:          0  HIT:          0  MISS:          0  HIT %:       -nan  MISS %:       -nan   MPKI: 0
ITLB RFO       ACCESS:          0  HIT:          0  MISS:          0  HIT %:       -nan  MISS %:       -nan   MPKI: 0
ITLB PREFETCH  ACCESS:          0  HIT:          0  MISS:          0  HIT %:       -nan  MISS %:       -nan   MPKI: 0
ITLB WRITEBACK ACCESS:          0  HIT:          0  MISS:          0  HIT %:       -nan  MISS %:       -nan   MPKI: 0
DTLB TOTAL     ACCESS:   24813931  HIT:   24381114  MISS:     432817  HIT %:    98.2557  MISS %:    1.74425   MPKI: 2.09532
DTLB LOAD      ACCESS:          0  HIT:          0  MISS:          0  HIT %:       -nan  MISS %:       -nan   MPKI: 0
DTLB RFO       ACCESS:          0  HIT:          0  MISS:          0  HIT %:       -nan  MISS %:       -nan   MPKI: 0
DTLB PREFETCH  ACCESS:          0  HIT:          0  MISS:          0  HIT %:       -nan  MISS %:       -nan   MPKI: 0
DTLB WRITEBACK ACCESS:          0  HIT:          0  MISS:          0  HIT %:       -nan  MISS %:       -nan   MPKI: 0
STLB TOTAL     ACCESS:    9787019  HIT:    9353690  MISS:     433329  HIT %:    95.5724  MISS %:    4.42759   MPKI: 2.0978
STLB LOAD      ACCESS:          0  HIT:          0  MISS:          0  HIT %:       -nan  MISS %:       -nan   MPKI: 0
STLB RFO       ACCESS:          0  HIT:          0  MISS:          0  HIT %:       -nan  MISS %:       -nan   MPKI: 0
STLB PREFETCH  ACCESS:          0  HIT:          0  MISS:          0  HIT %:       -nan  MISS %:       -nan   MPKI: 0
STLB WRITEBACK ACCESS:          0  HIT:          0  MISS:          0  HIT %:       -nan  MISS %:       -nan   MPKI: 0
L1D TOTAL     ACCESS:   39409300  HIT:   34551424  MISS:    4857876  HIT %:    87.6733  MISS %:    12.3267   MPKI: 23.5176
L1D LOAD      ACCESS:   17888984  HIT:   16625923  MISS:    1263061  HIT %:    92.9394  MISS %:    7.06055   MPKI: 6.11463
L1D RFO       ACCESS:    8226860  HIT:    6800286  MISS:    1426574  HIT %:    82.6596  MISS %:    17.3404   MPKI: 6.90622
L1D PREFETCH  ACCESS:   13293456  HIT:   11125215  MISS:    2168241  HIT %:    83.6894  MISS %:    16.3106   MPKI: 10.4967
L1D WRITEBACK ACCESS:          0  HIT:          0  MISS:          0  HIT %:       -nan  MISS %:       -nan   MPKI: 0
L1I TOTAL     ACCESS:   46048319  HIT:   46048214  MISS:        105  HIT %:    99.9998  MISS %: 0.000228021   MPKI: 0.000508318
L1I LOAD      ACCESS:   46048319  HIT:   46048214  MISS:        105  HIT %:    99.9998  MISS %: 0.000228021   MPKI: 0.000508318
L1I RFO       ACCESS:          0  HIT:          0  MISS:          0  HIT %:       -nan  MISS %:       -nan   MPKI: 0
L1I PREFETCH  ACCESS:          0  HIT:          0  MISS:          0  HIT %:       -nan  MISS %:       -nan   MPKI: 0
L1I WRITEBACK ACCESS:          0  HIT:          0  MISS:          0  HIT %:       -nan  MISS %:       -nan   MPKI: 0
L2C TOTAL     ACCESS:   12157497  HIT:    6244404  MISS:    5913093  HIT %:    51.3626  MISS %:    48.6374   MPKI: 28.626
L2C LOAD      ACCESS:     995951  HIT:     607125  MISS:     388826  HIT %:    60.9593  MISS %:    39.0407   MPKI: 1.88235
L2C RFO       ACCESS:    1426574  HIT:         48  MISS:    1426526  HIT %:  0.0033647  MISS %:    99.9966   MPKI: 6.90599
L2C PREFETCH  ACCESS:    6493885  HIT:    2715844  MISS:    3778041  HIT %:    41.8216  MISS %:    58.1784   MPKI: 18.29
L2C WRITEBACK ACCESS:    1906070  HIT:    1640323  MISS:     265747  HIT %:    86.0579  MISS %:    13.9421   MPKI: 1.28651
PSCL5 TOTAL     ACCESS:    1083410  HIT:    1083410  MISS:          0  HIT %:        100  MISS %:          0   MPKI: 0
PSCL5 LOAD      ACCESS:          0  HIT:          0  MISS:          0  HIT %:       -nan  MISS %:       -nan   MPKI: 0
PSCL5 RFO       ACCESS:          0  HIT:          0  MISS:          0  HIT %:       -nan  MISS %:       -nan   MPKI: 0
PSCL5 PREFETCH  ACCESS:          0  HIT:          0  MISS:          0  HIT %:       -nan  MISS %:       -nan   MPKI: 0
PSCL5 WRITEBACK ACCESS:          0  HIT:          0  MISS:          0  HIT %:       -nan  MISS %:       -nan   MPKI: 0
PSCL4 TOTAL     ACCESS:    1083410  HIT:    1083410  MISS:          0  HIT %:        100  MISS %:          0   MPKI: 0
PSCL4 LOAD      ACCESS:          0  HIT:          0  MISS:          0  HIT %:       -nan  MISS %:       -nan   MPKI: 0
PSCL4 RFO       ACCESS:          0  HIT:          0  MISS:          0  HIT %:       -nan  MISS %:       -nan   MPKI: 0
PSCL4 PREFETCH  ACCESS:          0  HIT:          0  MISS:          0  HIT %:       -nan  MISS %:       -nan   MPKI: 0
PSCL4 WRITEBACK ACCESS:          0  HIT:          0  MISS:          0  HIT %:       -nan  MISS %:       -nan   MPKI: 0
PSCL3 TOTAL     ACCESS:    1083410  HIT:    1083410  MISS:          0  HIT %:        100  MISS %:          0   MPKI: 0
PSCL3 LOAD      ACCESS:          0  HIT:          0  MISS:          0  HIT %:       -nan  MISS %:       -nan   MPKI: 0
PSCL3 RFO       ACCESS:          0  HIT:          0  MISS:          0  HIT %:       -nan  MISS %:       -nan   MPKI: 0
PSCL3 PREFETCH  ACCESS:          0  HIT:          0  MISS:          0  HIT %:       -nan  MISS %:       -nan   MPKI: 0
PSCL3 WRITEBACK ACCESS:          0  HIT:          0  MISS:          0  HIT %:       -nan  MISS %:       -nan   MPKI: 0
PSCL2 TOTAL     ACCESS:     831321  HIT:     830422  MISS:        899  HIT %:    99.8919  MISS %:   0.108141   MPKI: 0.00435217
PSCL2 LOAD      ACCESS:          0  HIT:          0  MISS:          0  HIT %:       -nan  MISS %:       -nan   MPKI: 0
PSCL2 RFO       ACCESS:          0  HIT:          0  MISS:          0  HIT %:       -nan  MISS %:       -nan   MPKI: 0
PSCL2 PREFETCH  ACCESS:          0  HIT:          0  MISS:          0  HIT %:       -nan  MISS %:       -nan   MPKI: 0
PSCL2 WRITEBACK ACCESS:          0  HIT:          0  MISS:          0  HIT %:       -nan  MISS %:       -nan   MPKI: 0
LLC TOTAL     ACCESS:    7548448  HIT:    1762844  MISS:    5785604  HIT %:    23.3537  MISS %:    76.6463   MPKI: 28.0088
LLC LOAD      ACCESS:     202613  HIT:        153  MISS:     202460  HIT %:  0.0755134  MISS %:    99.9245   MPKI: 0.980134
LLC RFO       ACCESS:    1426526  HIT:       2304  MISS:    1424222  HIT %:   0.161511  MISS %:    99.8385   MPKI: 6.89484
LLC PREFETCH  ACCESS:    3964254  HIT:       4654  MISS:    3959600  HIT %:   0.117399  MISS %:    99.8826   MPKI: 19.1689
LLC WRITEBACK ACCESS:    1901102  HIT:    1747515  MISS:     153587  HIT %:    91.9212  MISS %:    8.07884   MPKI: 0.743534

RAW hits: 1074013
Loads Generated: 53140042
Loads sent to L1D: 52066029
Stores Generated: 16069801
Stores sent to L1D: 16069801

CPU 3 cumulative IPC: 0.275131 instructions: 202513996 cycles: 736064646
ITLB TOTAL     ACCESS:   32597494  HIT:   32597481  MISS:         13  HIT %:        100  MISS %: 3.98804e-05   MPKI: 6.41931e-05
ITLB LOAD      ACCESS:          0  HIT:          0  MISS:          0  HIT %:       -nan  MISS %:       -nan   MPKI: 0
ITLB RFO       ACCESS:          0  HIT:          0  MISS:          0  HIT %:       -nan  MISS %:       -nan   MPKI: 0
ITLB PREFETCH  ACCESS:          0  HIT:          0  MISS:          0  HIT %:       -nan  MISS %:       -nan   MPKI: 0
ITLB WRITEBACK ACCESS:          0  HIT:          0  MISS:          0  HIT %:       -nan  MISS %:       -nan   MPKI: 0
DTLB TOTAL     ACCESS:   24376910  HIT:   23953448  MISS:     423462  HIT %:    98.2629  MISS %:    1.73714   MPKI: 2.09103
DTLB LOAD      ACCESS:          0  HIT:          0  MISS:          0  HIT %:       -nan  MISS %:       -nan   MPKI: 0
DTLB RFO       ACCESS:          0  HIT:          0  MISS:          0  HIT %:       -nan  MISS %:       -nan   MPKI: 0
DTLB PREFETCH  ACCESS:          0  HIT:          0  MISS:          0  HIT %:       -nan  MISS %:       -nan   MPKI: 0
DTLB WRITEBACK ACCESS:          0  HIT:          0  MISS:          0  HIT %:       -nan  MISS %:       -nan   MPKI: 0
STLB TOTAL     ACCESS:    9217063  HIT:    8793100  MISS:     423963  HIT %:    95.4002  MISS %:    4.59976   MPKI: 2.0935
STLB LOAD      ACCESS:          0  HIT:          0  MISS:          0  HIT %:       -nan  MISS %:       -nan   MPKI: 0
STLB RFO       ACCESS:          0  HIT:          0  MISS:          0  HIT %:       -nan  MISS %:       -nan   MPKI: 0
STLB PREFETCH  ACCESS:          0  HIT:          0  MISS:          0  HIT %:       -nan  MISS %:       -nan   MPKI: 0
STLB WRITEBACK ACCESS:          0  HIT:          0  MISS:          0  HIT %:       -nan  MISS %:       -nan   MPKI: 0
L1D TOTAL     ACCESS:   38188052  HIT:   33405715  MISS:    4782337  HIT %:    87.4769  MISS %:    12.5231   MPKI: 23.6148
L1D LOAD      ACCESS:   17509330  HIT:   16241918  MISS:    1267412  HIT %:    92.7615  MISS %:     7.2385   MPKI: 6.25839
L1D RFO       ACCESS:    8189660  HIT:    6783321  MISS:    1406339  HIT %:    82.8279  MISS %:    17.1721   MPKI: 6.9444
L1D PREFETCH  ACCESS:   12489062  HIT:   10380476  MISS:    2108586  HIT %:    83.1165  MISS %:    16.8835   MPKI: 10.4121
L1D WRITEBACK ACCESS:          0  HIT:          0  MISS:          0  HIT %:       -nan  MISS %:       -nan   MPKI: 0
L1I TOTAL     ACCESS:   45162246  HIT:   45162141  MISS:        105  HIT %:    99.9998  MISS %: 0.000232495   MPKI: 0.000518483
L1I LOAD      ACCESS:   45162246  HIT:   45162141  MISS:        105  HIT %:    99.9998  MISS %: 0.000232495   MPKI: 0.000518483
L1I RFO       ACCESS:          0  HIT:          0  MISS:          0  HIT %:       -nan  MISS %:       -nan   MPKI: 0
L1I PREFETCH  ACCESS:          0  HIT:          0  MISS:          0  HIT %:       -nan  MISS %:       -nan   MPKI: 0
L1I WRITEBACK ACCESS:          0  HIT:          0  MISS:          0  HIT %:       -nan  MISS %:       -nan   MPKI: 0
L2C TOTAL     ACCESS:   11963228  HIT:    6151731  MISS:    5811497  HIT %:     51.422  MISS %:     48.578   MPKI: 28.6968
L2C LOAD      ACCESS:    1002483  HIT:     604409  MISS:     398074  HIT %:    60.2912  MISS %:    39.7088   MPKI: 1.96566
L2C RFO       ACCESS:    1406339  HIT:         32  MISS:    1406307  HIT %: 0.00227541  MISS %:    99.9977   MPKI: 6.94425
L2C PREFETCH  ACCESS:    6367325  HIT:    2671507  MISS:    3695818  HIT %:    41.9565  MISS %:    58.0435   MPKI: 18.2497
L2C WRITEBACK ACCESS:    1885824  HIT:    1627230  MISS:     258594  HIT %:    86.2875  MISS %:    13.7125   MPKI: 1.27692
PSCL5 TOTAL     ACCESS:    1063042  HIT:    1063042  MISS:          0  HIT %:        100  MISS %:          0   MPKI: 0
PSCL5 LOAD      ACCESS:          0  HIT:          0  MISS:          0  HIT %:       -nan  MISS %:       -nan   MPKI: 0
PSCL5 RFO       ACCESS:          0  HIT:          0  MISS:          0  HIT %:       -nan  MISS %:       -nan   MPKI: 0
PSCL5 PREFETCH  ACCESS:          0  HIT:          0  MISS:          0  HIT %:       -nan  MISS %:       -nan   MPKI: 0
PSCL5 WRITEBACK ACCESS:          0  HIT:          0  MISS:          0  HIT %:       -nan  MISS %:       -nan   MPKI: 0
PSCL4 TOTAL     ACCESS:    1063042  HIT:    1063042  MISS:          0  HIT %:        100  MISS %:          0   MPKI: 0
PSCL4 LOAD      ACCESS:          0  HIT:          0  MISS:          0  HIT %:       -nan  MISS %:       -nan   MPKI: 0
PSCL4 RFO       ACCESS:          0  HIT:          0  MISS:          0  HIT %:       -nan  MISS %:       -nan   MPKI: 0
PSCL4 PREFETCH  ACCESS:          0  HIT:          0  MISS:          0  HIT %:       -nan  MISS %:       -nan   MPKI: 0
PSCL4 WRITEBACK ACCESS:          0  HIT:          0  MISS:          0  HIT %:       -nan  MISS %:       -nan   MPKI: 0
PSCL3 TOTAL     ACCESS:    1063042  HIT:    1063042  MISS:          0  HIT %:        100  MISS %:          0   MPKI: 0
PSCL3 LOAD      ACCESS:          0  HIT:          0  MISS:          0  HIT %:       -nan  MISS %:       -nan   MPKI: 0
PSCL3 RFO       ACCESS:          0  HIT:          0  MISS:          0  HIT %:       -nan  MISS %:       -nan   MPKI: 0
PSCL3 PREFETCH  ACCESS:          0  HIT:          0  MISS:          0  HIT %:       -nan  MISS %:       -nan   MPKI: 0
PSCL3 WRITEBACK ACCESS:          0  HIT:          0  MISS:          0  HIT %:       -nan  MISS %:       -nan   MPKI: 0
PSCL2 TOTAL     ACCESS:     824211  HIT:     823331  MISS:        880  HIT %:    99.8932  MISS %:   0.106769   MPKI: 0.00434538
PSCL2 LOAD      ACCESS:          0  HIT:          0  MISS:          0  HIT %:       -nan  MISS %:       -nan   MPKI: 0
PSCL2 RFO       ACCESS:          0  HIT:          0  MISS:          0  HIT %:       -nan  MISS %:       -nan   MPKI: 0
PSCL2 PREFETCH  ACCESS:          0  HIT:          0  MISS:          0  HIT %:       -nan  MISS %:       -nan   MPKI: 0
PSCL2 WRITEBACK ACCESS:          0  HIT:          0  MISS:          0  HIT %:       -nan  MISS %:       -nan   MPKI: 0
LLC TOTAL     ACCESS:    7433789  HIT:     735227  MISS:    6698562  HIT %:    9.89034  MISS %:    90.1097   MPKI: 33.077
LLC LOAD      ACCESS:     209192  HIT:         62  MISS:     209130  HIT %:  0.0296378  MISS %:    99.9704   MPKI: 1.03267
LLC RFO       ACCESS:    1406307  HIT:        886  MISS:    1405421  HIT %:  0.0630019  MISS %:     99.937   MPKI: 6.93987
LLC PREFETCH  ACCESS:    3884700  HIT:       2443  MISS:    3882257  HIT %:  0.0628877  MISS %:    99.9371   MPKI: 19.1703
LLC WRITEBACK ACCESS:    1880886  HIT:     729895  MISS:    1150991  HIT %:    38.8059  MISS %:    61.1941   MPKI: 5.68351

RAW hits: 1074926
Loads Generated: 52132147
Loads sent to L1D: 51057221
Stores Generated: 15898814
Stores sent to L1D: 15898820

Region of Interest Statistics

CPU 0 cumulative IPC: 0.277406 instructions: 200000001 cycles: 720965860
ITLB TOTAL     ACCESS:   32202930  HIT:   32202917  MISS:         13  HIT %:        100  MISS %: 4.0369e-05   MPKI: 6.5e-05
ITLB LOAD TRANSLATION ACCESS:   32202930  HIT:   32202917  MISS:         13  HIT %:        100  MISS %: 4.0369e-05   MPKI: 6.5e-05
ITLB PREFETCH  REQUESTED:          0  ISSUED:          0  USEFUL:          0  USELESS:          0
ITLB USEFUL LOAD PREFETCHES:          0 PREFETCH ISSUED TO LOWER LEVEL:          0  ACCURACY: -nan
ITLB TIMELY PREFETCHES:          0 LATE PREFETCHES: 0 DROPPED PREFETCHES: 0
ITLB PREFETCHES SAME FILL-ORIGIN LEVEL: 0 DIFFERENT FILL-ORIGIN LEVEL: 0
ITLB AVERAGE MISS LATENCY: 1680.08 cycles
ITLB RQ	ACCESS:   46237958	FORWARD:          0	MERGED:   12892316	TO_CACHE:   33345642

DTLB TOTAL     ACCESS:   24131666  HIT:   23713994  MISS:     417672  HIT %:    98.2692  MISS %:     1.7308   MPKI: 2.08836
DTLB LOAD TRANSLATION ACCESS:   24131666  HIT:   23713994  MISS:     417672  HIT %:    98.2692  MISS %:     1.7308   MPKI: 2.08836
DTLB PREFETCH  REQUESTED:          0  ISSUED:          0  USEFUL:          0  USELESS:          0
DTLB USEFUL LOAD PREFETCHES:          0 PREFETCH ISSUED TO LOWER LEVEL:          0  ACCURACY: -nan
DTLB TIMELY PREFETCHES:          0 LATE PREFETCHES: 0 DROPPED PREFETCHES: 0
DTLB PREFETCHES SAME FILL-ORIGIN LEVEL: 0 DIFFERENT FILL-ORIGIN LEVEL: 0
DTLB AVERAGE MISS LATENCY: 67.6342 cycles
DTLB RQ	ACCESS:   34471295	FORWARD:          0	MERGED:    9181771	TO_CACHE:   25289524

STLB TOTAL     ACCESS:    9122794  HIT:    8704662  MISS:     418132  HIT %:    95.4166  MISS %:    4.58338   MPKI: 2.09066
STLB LOAD TRANSLATION ACCESS:     417685  HIT:     381795  MISS:      35890  HIT %:    91.4074  MISS %:     8.5926   MPKI: 0.17945
STLB TRANSLATION FROM L1D PREFETCHER ACCESS:    8705109  HIT:    8322867  MISS:     382242  HIT %:     95.609  MISS %:    4.39101   MPKI: 1.91121
STLB PREFETCH  REQUESTED:          0  ISSUED:          0  USEFUL:     398763  USELESS:         39
STLB USEFUL LOAD PREFETCHES:     398763 PREFETCH ISSUED TO LOWER LEVEL:          0  ACCURACY: inf
STLB TIMELY PREFETCHES:     398763 LATE PREFETCHES: 7276 DROPPED PREFETCHES: 647335
STLB PREFETCHES SAME FILL-ORIGIN LEVEL: 0 DIFFERENT FILL-ORIGIN LEVEL: 0
STLB AVERAGE MISS LATENCY: 285.918 cycles
STLB RQ	ACCESS:   27591685	FORWARD:          0	MERGED:   17000297	TO_CACHE:   10591388

STLB Hit, L1D data hit: 0
STLB Hit, L2C data hit: 0
STLB Hit, LLC data hit: 0
STLB Hit, LLC data miss: 0
STLB STLB hints to L2: 0
L1D TOTAL     ACCESS:   37944346  HIT:   33208884  MISS:    4735462  HIT %:      87.52  MISS %:      12.48   MPKI: 23.6773
L1D LOAD      ACCESS:   17297411  HIT:   16052263  MISS:    1245148  HIT %:    92.8015  MISS %:    7.19846   MPKI: 6.22574
L1D RFO       ACCESS:    8171984  HIT:    6778231  MISS:    1393753  HIT %:    82.9447  MISS %:    17.0553   MPKI: 6.96876
L1D PREFETCH  ACCESS:   12474951  HIT:   10378390  MISS:    2096561  HIT %:    83.1938  MISS %:    16.8062   MPKI: 10.4828
L1D PREFETCH  REQUESTED:   99111623  ISSUED:   59612408  USEFUL:    2173724  USELESS:       6317
L1D USEFUL LOAD PREFETCHES:    2173724 PREFETCH ISSUED TO LOWER LEVEL:   71576214  ACCURACY: 3.03694
L1D TIMELY PREFETCHES:    2173724 LATE PREFETCHES: 269120 DROPPED PREFETCHES: 1772563
L1D PREFETCHES SAME FILL-ORIGIN LEVEL: 4528945 DIFFERENT FILL-ORIGIN LEVEL: 67047269
L1D AVERAGE MISS LATENCY: 1379.98 cycles
L1D RQ	ACCESS:   52284325	FORWARD:          0	MERGED:   33897293	TO_CACHE:   18373660
L1D WQ	ACCESS:   16106862	FORWARD:      13372	MERGED:       9227	TO_CACHE:   16097635
L1D PQ	ACCESS:   32455589	FORWARD:          0	MERGED:    5298770	TO_CACHE:   27156819

L1D UNIQUE REGIONS ACCESSED: 0
L1D REGIONS CONFLICTS: 0
L1D Cross Page Prefetch Requests: 32300844
L1D Same Page Prefetch Requests: 22613823
L1D ROI Sum of L1D PQ occupancy: 4413151599
L1D PREFETCHES PUSHED FROM L2C: 0
L1I TOTAL     ACCESS:   44599255  HIT:   44599150  MISS:        105  HIT %:    99.9998  MISS %: 0.00023543   MPKI: 0.000525
L1I LOAD      ACCESS:   44599255  HIT:   44599150  MISS:        105  HIT %:    99.9998  MISS %: 0.00023543   MPKI: 0.000525
L1I PREFETCH  REQUESTED:          0  ISSUED:          0  USEFUL:          0  USELESS:          0
L1I USEFUL LOAD PREFETCHES:          0 PREFETCH ISSUED TO LOWER LEVEL:          0  ACCURACY: -nan
L1I TIMELY PREFETCHES:          0 LATE PREFETCHES: 0 DROPPED PREFETCHES: 0
L1I PREFETCHES SAME FILL-ORIGIN LEVEL: 0 DIFFERENT FILL-ORIGIN LEVEL: 0
L1I AVERAGE MISS LATENCY: 1545.39 cycles
L1I RQ	ACCESS:   57599157	FORWARD:          0	MERGED:   11361199	TO_CACHE:   46237958

BTB TOTAL     ACCESS:    9506871  HIT:    9506731  MISS:        140  HIT %:    99.9985  MISS %: 0.00147262   MPKI: 0.0007
BTB BRANCH_DIRECT_JUMP	ACCESS:         38  HIT:         17  MISS:         21
BTB BRANCH_INDIRECT	ACCESS:          0  HIT:          0  MISS:          0
BTB BRANCH_CONDITIONAL	ACCESS:    7898443  HIT:    7898376  MISS:         67
BTB BRANCH_DIRECT_CALL	ACCESS:     804195  HIT:     804171  MISS:         24
BTB BRANCH_INDIRECT_CALL	ACCESS:          0  HIT:          0  MISS:          0
BTB BRANCH_RETURN	ACCESS:     804195  HIT:     804167  MISS:         28
BTB BRANCH_OTHER ACCESS:          0  HIT:          0  MISS:          0

L2C TOTAL     ACCESS:   11794655  HIT:    5998044  MISS:    5796611  HIT %:    50.8539  MISS %:    49.1461   MPKI: 28.9831
L2C LOAD      ACCESS:     979214  HIT:     595009  MISS:     384205  HIT %:    60.7639  MISS %:    39.2361   MPKI: 1.92102
L2C DATA LOAD MPKI: 1.9205
L2C INSTRUCTION LOAD MPKI: 0.000525
L2C RFO       ACCESS:    1393753  HIT:         15  MISS:    1393738  HIT %: 0.00107623  MISS %:    99.9989   MPKI: 6.96869
L2C PREFETCH  ACCESS:    6276465  HIT:    2571075  MISS:    3705390  HIT %:    40.9637  MISS %:    59.0363   MPKI: 18.5269
L2C DATA PREFETCH MPKI: 18.5269
L2C INSTRUCTION PREFETCH MPKI: 0
L2C WRITEBACK ACCESS:    1873245  HIT:    1612014  MISS:     261231  HIT %:    86.0546  MISS %:    13.9454   MPKI: 1.30615
L2C LOAD TRANSLATION ACCESS:      32244  HIT:      31050  MISS:       1194  HIT %:     96.297  MISS %:    3.70301   MPKI: 0.00597
L2C TRANSLATION FROM L1D PREFETCHER ACCESS:    1239734  HIT:    1188881  MISS:      50853  HIT %:    95.8981  MISS %:    4.10193   MPKI: 0.254265
L2C PREFETCH  REQUESTED:          0  ISSUED:          0  USEFUL:     657341  USELESS:    3202719
L2C USEFUL LOAD PREFETCHES:     657341 PREFETCH ISSUED TO LOWER LEVEL:    3987857  ACCURACY: 16.4836
L2C TIMELY PREFETCHES:     657341 LATE PREFETCHES: 185951 DROPPED PREFETCHES: 0
L2C PREFETCHES SAME FILL-ORIGIN LEVEL: 2845511 DIFFERENT FILL-ORIGIN LEVEL: 0
L2C AVERAGE MISS LATENCY: 2217.87 cycles
L2C RQ	ACCESS:    3763599	FORWARD:          0	MERGED:          0	TO_CACHE:    3763599
L2C WQ	ACCESS:    1910451	FORWARD:          0	MERGED:          0	TO_CACHE:    1910451
L2C PQ	ACCESS:   10897360	FORWARD:          0	MERGED:     606607	TO_CACHE:   10290753

L2C Instructions Evicting Data 88
L2C Translations Evicting Data 46178
L2C Data Evicting Data 5578266
L2C Instructions Evicting Instructions 0
L2C Translations Evicting Instructions 23
L2C Data Evicting Instructions 77
L2C Instructions Evicting Translations 17
L2C Translations Evicting Translations 8030
L2C Data Evicting Translations 43432
L2C Dense regions hint from L2: 0
PSCL5 TOTAL     ACCESS:    1037610  HIT:    1037610  MISS:          0  HIT %:        100  MISS %:          0   MPKI: 0
PSCL5 LOAD TRANSLATION ACCESS:      32201  HIT:      32201  MISS:          0  HIT %:        100  MISS %:          0   MPKI: 0
PSCL5 TRANSLATION FROM L1D PREFETCHER ACCESS:    1005409  HIT:    1005409  MISS:          0  HIT %:        100  MISS %:          0   MPKI: 0
PSCL5 PREFETCH  REQUESTED:          0  ISSUED:          0  USEFUL:          0  USELESS:          0
PSCL5 USEFUL LOAD PREFETCHES:          0 PREFETCH ISSUED TO LOWER LEVEL:          0  ACCURACY: -nan
PSCL5 TIMELY PREFETCHES:          0 LATE PREFETCHES: 0 DROPPED PREFETCHES: 0
PSCL5 PREFETCHES SAME FILL-ORIGIN LEVEL: 0 DIFFERENT FILL-ORIGIN LEVEL: 0

PSCL4 TOTAL     ACCESS:    1037610  HIT:    1037610  MISS:          0  HIT %:        100  MISS %:          0   MPKI: 0
PSCL4 LOAD TRANSLATION ACCESS:      32201  HIT:      32201  MISS:          0  HIT %:        100  MISS %:          0   MPKI: 0
PSCL4 TRANSLATION FROM L1D PREFETCHER ACCESS:    1005409  HIT:    1005409  MISS:          0  HIT %:        100  MISS %:          0   MPKI: 0
PSCL4 PREFETCH  REQUESTED:          0  ISSUED:          0  USEFUL:          0  USELESS:          0
PSCL4 USEFUL LOAD PREFETCHES:          0 PREFETCH ISSUED TO LOWER LEVEL:          0  ACCURACY: -nan
PSCL4 TIMELY PREFETCHES:          0 LATE PREFETCHES: 0 DROPPED PREFETCHES: 0
PSCL4 PREFETCHES SAME FILL-ORIGIN LEVEL: 0 DIFFERENT FILL-ORIGIN LEVEL: 0

PSCL3 TOTAL     ACCESS:    1037610  HIT:    1037610  MISS:          0  HIT %:        100  MISS %:          0   MPKI: 0
PSCL3 LOAD TRANSLATION ACCESS:      32201  HIT:      32201  MISS:          0  HIT %:        100  MISS %:          0   MPKI: 0
PSCL3 TRANSLATION FROM L1D PREFETCHER ACCESS:    1005409  HIT:    1005409  MISS:          0  HIT %:        100  MISS %:          0   MPKI: 0
PSCL3 PREFETCH  REQUESTED:          0  ISSUED:          0  USEFUL:          0  USELESS:          0
PSCL3 USEFUL LOAD PREFETCHES:          0 PREFETCH ISSUED TO LOWER LEVEL:          0  ACCURACY: -nan
PSCL3 TIMELY PREFETCHES:          0 LATE PREFETCHES: 0 DROPPED PREFETCHES: 0
PSCL3 PREFETCHES SAME FILL-ORIGIN LEVEL: 0 DIFFERENT FILL-ORIGIN LEVEL: 0

PSCL2 TOTAL     ACCESS:     802740  HIT:     801872  MISS:        868  HIT %:    99.8919  MISS %:    0.10813   MPKI: 0.00434
PSCL2 LOAD TRANSLATION ACCESS:      32965  HIT:      32097  MISS:        868  HIT %:    97.3669  MISS %:     2.6331   MPKI: 0.00434
PSCL2 TRANSLATION FROM L1D PREFETCHER ACCESS:     769775  HIT:     769775  MISS:          0  HIT %:        100  MISS %:          0   MPKI: 0
PSCL2 PREFETCH  REQUESTED:          0  ISSUED:          0  USEFUL:          0  USELESS:          0
PSCL2 USEFUL LOAD PREFETCHES:          0 PREFETCH ISSUED TO LOWER LEVEL:          0  ACCURACY: -nan
PSCL2 TIMELY PREFETCHES:          0 LATE PREFETCHES: 0 DROPPED PREFETCHES: 0
PSCL2 PREFETCHES SAME FILL-ORIGIN LEVEL: 0 DIFFERENT FILL-ORIGIN LEVEL: 0

LLC TOTAL     ACCESS:    7404008  HIT:    1815082  MISS:    5588926  HIT %:    24.5149  MISS %:    75.4851   MPKI: 27.9446
LLC LOAD      ACCESS:     200103  HIT:        143  MISS:     199960  HIT %:  0.0714632  MISS %:    99.9285   MPKI: 0.9998
LLC RFO       ACCESS:    1393738  HIT:       2526  MISS:    1391212  HIT %:   0.181239  MISS %:    99.8188   MPKI: 6.95606
LLC PREFETCH  ACCESS:    3889492  HIT:       3620  MISS:    3885872  HIT %:  0.0930713  MISS %:    99.9069   MPKI: 19.4294
LLC WRITEBACK ACCESS:    1868628  HIT:    1801276  MISS:      67352  HIT %:    96.3956  MISS %:    3.60436   MPKI: 0.33676
LLC LOAD TRANSLATION ACCESS:       1194  HIT:        105  MISS:       1089  HIT %:    8.79397  MISS %:     91.206   MPKI: 0.005445
LLC TRANSLATION FROM L1D PREFETCHER ACCESS:      50853  HIT:       7412  MISS:      43441  HIT %:    14.5753  MISS %:    85.4247   MPKI: 0.217205
LLC PREFETCH  REQUESTED:          0  ISSUED:          0  USEFUL:      17102  USELESS:   15943023
LLC USEFUL LOAD PREFETCHES:      17102 PREFETCH ISSUED TO LOWER LEVEL: 1637743121  ACCURACY: 0.00104424
LLC TIMELY PREFETCHES:      17102 LATE PREFETCHES: 0 DROPPED PREFETCHES: 0
LLC PREFETCHES SAME FILL-ORIGIN LEVEL: 0 DIFFERENT FILL-ORIGIN LEVEL: 0
LLC AVERAGE MISS LATENCY: 7032.74 cycles
LLC RQ	ACCESS:    6698787	FORWARD:          0	MERGED:          0	TO_CACHE:    6698787
LLC WQ	ACCESS:    7556066	FORWARD:          0	MERGED:          0	TO_CACHE:    7556066
LLC PQ	ACCESS:   15703029	FORWARD:          0	MERGED:          0	TO_CACHE:   15703029

LLC Dense regions hint to LLC: 0

RAW hits: 1074195
Loads Generated: 51506458
Loads sent to L1D: 50432255
Stores Generated: 15792673
Stores sent to L1D: 15792671
Major fault: 0 Minor fault: 90397
Allocated PAGES: 361588

CPU 1 cumulative IPC: 0.271715 instructions: 200000000 cycles: 736064646
ITLB TOTAL     ACCESS:   32242344  HIT:   32242331  MISS:         13  HIT %:        100  MISS %: 4.03196e-05   MPKI: 6.5e-05
ITLB LOAD TRANSLATION ACCESS:   32242344  HIT:   32242331  MISS:         13  HIT %:        100  MISS %: 4.03196e-05   MPKI: 6.5e-05
ITLB PREFETCH  REQUESTED:          0  ISSUED:          0  USEFUL:          0  USELESS:          0
ITLB USEFUL LOAD PREFETCHES:          0 PREFETCH ISSUED TO LOWER LEVEL:          0  ACCURACY: -nan
ITLB TIMELY PREFETCHES:          0 LATE PREFETCHES: 0 DROPPED PREFETCHES: 0
ITLB PREFETCHES SAME FILL-ORIGIN LEVEL: 0 DIFFERENT FILL-ORIGIN LEVEL: 0
ITLB AVERAGE MISS LATENCY: 1872.23 cycles
ITLB RQ	ACCESS:   44643758	FORWARD:          0	MERGED:   12401412	TO_CACHE:   32242346

DTLB TOTAL     ACCESS:   24107396  HIT:   23689728  MISS:     417668  HIT %:    98.2675  MISS %:    1.73253   MPKI: 2.08834
DTLB LOAD TRANSLATION ACCESS:   24107396  HIT:   23689728  MISS:     417668  HIT %:    98.2675  MISS %:    1.73253   MPKI: 2.08834
DTLB PREFETCH  REQUESTED:          0  ISSUED:          0  USEFUL:          0  USELESS:          0
DTLB USEFUL LOAD PREFETCHES:          0 PREFETCH ISSUED TO LOWER LEVEL:          0  ACCURACY: -nan
DTLB TIMELY PREFETCHES:          0 LATE PREFETCHES: 0 DROPPED PREFETCHES: 0
DTLB PREFETCHES SAME FILL-ORIGIN LEVEL: 0 DIFFERENT FILL-ORIGIN LEVEL: 0
DTLB AVERAGE MISS LATENCY: 70.5038 cycles
DTLB RQ	ACCESS:   33487768	FORWARD:          0	MERGED:    8982655	TO_CACHE:   24505113

STLB TOTAL     ACCESS:    9017568  HIT:    8599365  MISS:     418203  HIT %:    95.3624  MISS %:    4.63765   MPKI: 2.09102
STLB LOAD TRANSLATION ACCESS:     417681  HIT:     381056  MISS:      36625  HIT %:    91.2313  MISS %:    8.76865   MPKI: 0.183125
STLB TRANSLATION FROM L1D PREFETCHER ACCESS:    8599887  HIT:    8218309  MISS:     381578  HIT %:     95.563  MISS %:    4.43701   MPKI: 1.90789
STLB PREFETCH  REQUESTED:          0  ISSUED:          0  USEFUL:     381505  USELESS:         72
STLB USEFUL LOAD PREFETCHES:     381505 PREFETCH ISSUED TO LOWER LEVEL:          0  ACCURACY: inf
STLB TIMELY PREFETCHES:     381505 LATE PREFETCHES: 7590 DROPPED PREFETCHES: 617137
STLB PREFETCHES SAME FILL-ORIGIN LEVEL: 0 DIFFERENT FILL-ORIGIN LEVEL: 0
STLB AVERAGE MISS LATENCY: 340.891 cycles
STLB RQ	ACCESS:   25951494	FORWARD:          0	MERGED:   16191603	TO_CACHE:    9759891

STLB Hit, L1D data hit: 0
STLB Hit, L2C data hit: 0
STLB Hit, LLC data hit: 0
STLB Hit, LLC data miss: 0
STLB STLB hints to L2: 0
L1D TOTAL     ACCESS:   37722407  HIT:   32986781  MISS:    4735626  HIT %:    87.4461  MISS %:    12.5539   MPKI: 23.6781
L1D LOAD      ACCESS:   17286633  HIT:   16009303  MISS:    1277330  HIT %:    92.6109  MISS %:    7.38912   MPKI: 6.38665
L1D RFO       ACCESS:    8166687  HIT:    6772936  MISS:    1393751  HIT %:    82.9337  MISS %:    17.0663   MPKI: 6.96875
L1D PREFETCH  ACCESS:   12269087  HIT:   10204542  MISS:    2064545  HIT %:    83.1728  MISS %:    16.8272   MPKI: 10.3227
L1D PREFETCH  REQUESTED:   93555939  ISSUED:   56039749  USEFUL:    2058113  USELESS:       6443
L1D USEFUL LOAD PREFETCHES:    2058113 PREFETCH ISSUED TO LOWER LEVEL:   75907899  ACCURACY: 2.71133
L1D TIMELY PREFETCHES:    2058113 LATE PREFETCHES: 259979 DROPPED PREFETCHES: 1723980
L1D PREFETCHES SAME FILL-ORIGIN LEVEL: 4397844 DIFFERENT FILL-ORIGIN LEVEL: 71510055
L1D AVERAGE MISS LATENCY: 1401.45 cycles
L1D RQ	ACCESS:   50431297	FORWARD:          0	MERGED:   32714968	TO_CACHE:   17703431
L1D WQ	ACCESS:   15792671	FORWARD:      12898	MERGED:       8334	TO_CACHE:   15784337
L1D PQ	ACCESS:   30505936	FORWARD:          0	MERGED:    4972123	TO_CACHE:   25533813

L1D UNIQUE REGIONS ACCESSED: 0
L1D REGIONS CONFLICTS: 0
L1D Cross Page Prefetch Requests: 30569184
L1D Same Page Prefetch Requests: 22364306
L1D ROI Sum of L1D PQ occupancy: 4564983963
L1D PREFETCHES PUSHED FROM L2C: 0
L1I TOTAL     ACCESS:   44643749  HIT:   44643644  MISS:        105  HIT %:    99.9998  MISS %: 0.000235195   MPKI: 0.000525
L1I LOAD      ACCESS:   44643749  HIT:   44643644  MISS:        105  HIT %:    99.9998  MISS %: 0.000235195   MPKI: 0.000525
L1I PREFETCH  REQUESTED:          0  ISSUED:          0  USEFUL:          0  USELESS:          0
L1I USEFUL LOAD PREFETCHES:          0 PREFETCH ISSUED TO LOWER LEVEL:          0  ACCURACY: -nan
L1I TIMELY PREFETCHES:          0 LATE PREFETCHES: 0 DROPPED PREFETCHES: 0
L1I PREFETCHES SAME FILL-ORIGIN LEVEL: 0 DIFFERENT FILL-ORIGIN LEVEL: 0
L1I AVERAGE MISS LATENCY: 1598.38 cycles
L1I RQ	ACCESS:   55645681	FORWARD:          0	MERGED:   11001923	TO_CACHE:   44643758

BTB TOTAL     ACCESS:    9506864  HIT:    9506724  MISS:        140  HIT %:    99.9985  MISS %: 0.00147262   MPKI: 0.0007
BTB BRANCH_DIRECT_JUMP	ACCESS:         38  HIT:         17  MISS:         21
BTB BRANCH_INDIRECT	ACCESS:          0  HIT:          0  MISS:          0
BTB BRANCH_CONDITIONAL	ACCESS:    7898438  HIT:    7898371  MISS:         67
BTB BRANCH_DIRECT_CALL	ACCESS:     804194  HIT:     804170  MISS:         24
BTB BRANCH_INDIRECT_CALL	ACCESS:          0  HIT:          0  MISS:          0
BTB BRANCH_RETURN	ACCESS:     804194  HIT:     804166  MISS:         28
BTB BRANCH_OTHER ACCESS:          0  HIT:          0  MISS:          0

L2C TOTAL     ACCESS:   11845020  HIT:    6063501  MISS:    5781519  HIT %:    51.1903  MISS %:    48.8097   MPKI: 28.9076
L2C LOAD      ACCESS:    1017456  HIT:     613761  MISS:     403695  HIT %:    60.3231  MISS %:    39.6769   MPKI: 2.01848
L2C DATA LOAD MPKI: 2.01795
L2C INSTRUCTION LOAD MPKI: 0.000525
L2C RFO       ACCESS:    1393751  HIT:         19  MISS:    1393732  HIT %: 0.00136323  MISS %:    99.9986   MPKI: 6.96866
L2C PREFETCH  ACCESS:    6289086  HIT:    2613163  MISS:    3675923  HIT %:    41.5508  MISS %:    58.4492   MPKI: 18.3796
L2C DATA PREFETCH MPKI: 18.3796
L2C INSTRUCTION PREFETCH MPKI: 0
L2C WRITEBACK ACCESS:    1873248  HIT:    1617119  MISS:     256129  HIT %:     86.327  MISS %:     13.673   MPKI: 1.28065
L2C LOAD TRANSLATION ACCESS:      32325  HIT:      31112  MISS:       1213  HIT %:    96.2475  MISS %:    3.75251   MPKI: 0.006065
L2C TRANSLATION FROM L1D PREFETCHER ACCESS:    1239154  HIT:    1188327  MISS:      50827  HIT %:    95.8982  MISS %:    4.10175   MPKI: 0.254135
L2C PREFETCH  REQUESTED:          0  ISSUED:          0  USEFUL:     664020  USELESS:    3067640
L2C USEFUL LOAD PREFETCHES:     664020 PREFETCH ISSUED TO LOWER LEVEL:    3866195  ACCURACY: 17.175
L2C TIMELY PREFETCHES:     664020 LATE PREFETCHES: 190256 DROPPED PREFETCHES: 0
L2C PREFETCHES SAME FILL-ORIGIN LEVEL: 2766496 DIFFERENT FILL-ORIGIN LEVEL: 0
L2C AVERAGE MISS LATENCY: 2232.5 cycles
L2C RQ	ACCESS:    3682692	FORWARD:          0	MERGED:          0	TO_CACHE:    3682692
L2C WQ	ACCESS:    1873248	FORWARD:          0	MERGED:          0	TO_CACHE:    1873248
L2C PQ	ACCESS:   10445529	FORWARD:          0	MERGED:     595897	TO_CACHE:    9849632

L2C Instructions Evicting Data 78
L2C Translations Evicting Data 44419
L2C Data Evicting Data 5431220
L2C Instructions Evicting Instructions 0
L2C Translations Evicting Instructions 20
L2C Data Evicting Instructions 82
L2C Instructions Evicting Translations 27
L2C Translations Evicting Translations 7601
L2C Data Evicting Translations 41943
L2C Dense regions hint from L2: 0
PSCL5 TOTAL     ACCESS:    1038583  HIT:    1038583  MISS:          0  HIT %:        100  MISS %:          0   MPKI: 0
PSCL5 LOAD TRANSLATION ACCESS:      32279  HIT:      32279  MISS:          0  HIT %:        100  MISS %:          0   MPKI: 0
PSCL5 TRANSLATION FROM L1D PREFETCHER ACCESS:    1006304  HIT:    1006304  MISS:          0  HIT %:        100  MISS %:          0   MPKI: 0
PSCL5 PREFETCH  REQUESTED:          0  ISSUED:          0  USEFUL:          0  USELESS:          0
PSCL5 USEFUL LOAD PREFETCHES:          0 PREFETCH ISSUED TO LOWER LEVEL:          0  ACCURACY: -nan
PSCL5 TIMELY PREFETCHES:          0 LATE PREFETCHES: 0 DROPPED PREFETCHES: 0
PSCL5 PREFETCHES SAME FILL-ORIGIN LEVEL: 0 DIFFERENT FILL-ORIGIN LEVEL: 0

PSCL4 TOTAL     ACCESS:    1038583  HIT:    1038583  MISS:          0  HIT %:        100  MISS %:          0   MPKI: 0
PSCL4 LOAD TRANSLATION ACCESS:      32279  HIT:      32279  MISS:          0  HIT %:        100  MISS %:          0   MPKI: 0
PSCL4 TRANSLATION FROM L1D PREFETCHER ACCESS:    1006304  HIT:    1006304  MISS:          0  HIT %:        100  MISS %:          0   MPKI: 0
PSCL4 PREFETCH  REQUESTED:          0  ISSUED:          0  USEFUL:          0  USELESS:          0
PSCL4 USEFUL LOAD PREFETCHES:          0 PREFETCH ISSUED TO LOWER LEVEL:          0  ACCURACY: -nan
PSCL4 TIMELY PREFETCHES:          0 LATE PREFETCHES: 0 DROPPED PREFETCHES: 0
PSCL4 PREFETCHES SAME FILL-ORIGIN LEVEL: 0 DIFFERENT FILL-ORIGIN LEVEL: 0

PSCL3 TOTAL     ACCESS:    1038583  HIT:    1038583  MISS:          0  HIT %:        100  MISS %:          0   MPKI: 0
PSCL3 LOAD TRANSLATION ACCESS:      32279  HIT:      32279  MISS:          0  HIT %:        100  MISS %:          0   MPKI: 0
PSCL3 TRANSLATION FROM L1D PREFETCHER ACCESS:    1006304  HIT:    1006304  MISS:          0  HIT %:        100  MISS %:          0   MPKI: 0
PSCL3 PREFETCH  REQUESTED:          0  ISSUED:          0  USEFUL:          0  USELESS:          0
PSCL3 USEFUL LOAD PREFETCHES:          0 PREFETCH ISSUED TO LOWER LEVEL:          0  ACCURACY: -nan
PSCL3 TIMELY PREFETCHES:          0 LATE PREFETCHES: 0 DROPPED PREFETCHES: 0
PSCL3 PREFETCHES SAME FILL-ORIGIN LEVEL: 0 DIFFERENT FILL-ORIGIN LEVEL: 0

PSCL2 TOTAL     ACCESS:     804963  HIT:     804095  MISS:        868  HIT %:    99.8922  MISS %:   0.107831   MPKI: 0.00434
PSCL2 LOAD TRANSLATION ACCESS:      33040  HIT:      32172  MISS:        868  HIT %:    97.3729  MISS %:    2.62712   MPKI: 0.00434
PSCL2 TRANSLATION FROM L1D PREFETCHER ACCESS:     771923  HIT:     771923  MISS:          0  HIT %:        100  MISS %:          0   MPKI: 0
PSCL2 PREFETCH  REQUESTED:          0  ISSUED:          0  USEFUL:          0  USELESS:          0
PSCL2 USEFUL LOAD PREFETCHES:          0 PREFETCH ISSUED TO LOWER LEVEL:          0  ACCURACY: -nan
PSCL2 TIMELY PREFETCHES:          0 LATE PREFETCHES: 0 DROPPED PREFETCHES: 0
PSCL2 PREFETCHES SAME FILL-ORIGIN LEVEL: 0 DIFFERENT FILL-ORIGIN LEVEL: 0

LLC TOTAL     ACCESS:    7393970  HIT:     249867  MISS:    7144103  HIT %:    3.37933  MISS %:    96.6207   MPKI: 35.7205
LLC LOAD      ACCESS:     213439  HIT:         71  MISS:     213368  HIT %:  0.0332648  MISS %:    99.9667   MPKI: 1.06684
LLC RFO       ACCESS:    1393732  HIT:       1229  MISS:    1392503  HIT %:  0.0881805  MISS %:    99.9118   MPKI: 6.96251
LLC PREFETCH  ACCESS:    3866179  HIT:       2309  MISS:    3863870  HIT %:   0.059723  MISS %:    99.9403   MPKI: 19.3194
LLC WRITEBACK ACCESS:    1868580  HIT:     245782  MISS:    1622798  HIT %:    13.1534  MISS %:    86.8466   MPKI: 8.11399
LLC LOAD TRANSLATION ACCESS:       1213  HIT:         21  MISS:       1192  HIT %:    1.73124  MISS %:    98.2688   MPKI: 0.00596
LLC TRANSLATION FROM L1D PREFETCHER ACCESS:      50827  HIT:        455  MISS:      50372  HIT %:   0.895193  MISS %:    99.1048   MPKI: 0.25186
LLC PREFETCH  REQUESTED:          0  ISSUED:          0  USEFUL:      17102  USELESS:   15943023
LLC USEFUL LOAD PREFETCHES:      17102 PREFETCH ISSUED TO LOWER LEVEL: 1637743121  ACCURACY: 0.00104424
LLC TIMELY PREFETCHES:      17102 LATE PREFETCHES: 0 DROPPED PREFETCHES: 0
LLC PREFETCHES SAME FILL-ORIGIN LEVEL: 0 DIFFERENT FILL-ORIGIN LEVEL: 0
LLC AVERAGE MISS LATENCY: 5501.8 cycles
LLC RQ	ACCESS:    6698787	FORWARD:          0	MERGED:          0	TO_CACHE:    6698787
LLC WQ	ACCESS:    7556066	FORWARD:          0	MERGED:          0	TO_CACHE:    7556066
LLC PQ	ACCESS:   15703029	FORWARD:          0	MERGED:          0	TO_CACHE:   15703029

LLC Dense regions hint to LLC: 0

RAW hits: 1075138
Loads Generated: 51506434
Loads sent to L1D: 50431297
Stores Generated: 15792669
Stores sent to L1D: 15792671
Major fault: 0 Minor fault: 90397
Allocated PAGES: 361588

CPU 2 cumulative IPC: 0.276369 instructions: 200000002 cycles: 723670675
ITLB TOTAL     ACCESS:   32207160  HIT:   32207147  MISS:         13  HIT %:        100  MISS %: 4.03637e-05   MPKI: 6.5e-05
ITLB LOAD TRANSLATION ACCESS:   32207160  HIT:   32207147  MISS:         13  HIT %:        100  MISS %: 4.03637e-05   MPKI: 6.5e-05
ITLB PREFETCH  REQUESTED:          0  ISSUED:          0  USEFUL:          0  USELESS:          0
ITLB USEFUL LOAD PREFETCHES:          0 PREFETCH ISSUED TO LOWER LEVEL:          0  ACCURACY: -nan
ITLB TIMELY PREFETCHES:          0 LATE PREFETCHES: 0 DROPPED PREFETCHES: 0
ITLB PREFETCHES SAME FILL-ORIGIN LEVEL: 0 DIFFERENT FILL-ORIGIN LEVEL: 0
ITLB AVERAGE MISS LATENCY: 1454.15 cycles
ITLB RQ	ACCESS:   46048327	FORWARD:          0	MERGED:   12833557	TO_CACHE:   33214770

DTLB TOTAL     ACCESS:   24141641  HIT:   23723974  MISS:     417667  HIT %:    98.2699  MISS %:    1.73007   MPKI: 2.08833
DTLB LOAD TRANSLATION ACCESS:   24141641  HIT:   23723974  MISS:     417667  HIT %:    98.2699  MISS %:    1.73007   MPKI: 2.08833
DTLB PREFETCH  REQUESTED:          0  ISSUED:          0  USEFUL:          0  USELESS:          0
DTLB USEFUL LOAD PREFETCHES:          0 PREFETCH ISSUED TO LOWER LEVEL:          0  ACCURACY: -nan
DTLB TIMELY PREFETCHES:          0 LATE PREFETCHES: 0 DROPPED PREFETCHES: 0
DTLB PREFETCHES SAME FILL-ORIGIN LEVEL: 0 DIFFERENT FILL-ORIGIN LEVEL: 0
DTLB AVERAGE MISS LATENCY: 69.2429 cycles
DTLB RQ	ACCESS:   34374428	FORWARD:          0	MERGED:    9157560	TO_CACHE:   25216868

STLB TOTAL     ACCESS:    9144066  HIT:    8725863  MISS:     418203  HIT %:    95.4265  MISS %:    4.57349   MPKI: 2.09101
STLB LOAD TRANSLATION ACCESS:     417680  HIT:     381675  MISS:      36005  HIT %:    91.3798  MISS %:    8.62024   MPKI: 0.180025
STLB TRANSLATION FROM L1D PREFETCHER ACCESS:    8726386  HIT:    8344188  MISS:     382198  HIT %:    95.6202  MISS %:     4.3798   MPKI: 1.91099
STLB PREFETCH  REQUESTED:          0  ISSUED:          0  USEFUL:     396728  USELESS:         76
STLB USEFUL LOAD PREFETCHES:     396728 PREFETCH ISSUED TO LOWER LEVEL:          0  ACCURACY: inf
STLB TIMELY PREFETCHES:     396728 LATE PREFETCHES: 7438 DROPPED PREFETCHES: 646425
STLB PREFETCHES SAME FILL-ORIGIN LEVEL: 0 DIFFERENT FILL-ORIGIN LEVEL: 0
STLB AVERAGE MISS LATENCY: 288.488 cycles
STLB RQ	ACCESS:   27518170	FORWARD:          0	MERGED:   16962531	TO_CACHE:   10555639

STLB Hit, L1D data hit: 0
STLB Hit, L2C data hit: 0
STLB Hit, LLC data hit: 0
STLB Hit, LLC data miss: 0
STLB STLB hints to L2: 0
L1D TOTAL     ACCESS:   37977772  HIT:   33242052  MISS:    4735720  HIT %:    87.5303  MISS %:    12.4697   MPKI: 23.6786
L1D LOAD      ACCESS:   17309937  HIT:   16061580  MISS:    1248357  HIT %:    92.7882  MISS %:    7.21179   MPKI: 6.24178
L1D RFO       ACCESS:    8169245  HIT:    6775487  MISS:    1393758  HIT %:     82.939  MISS %:     17.061   MPKI: 6.96879
L1D PREFETCH  ACCESS:   12498590  HIT:   10404985  MISS:    2093605  HIT %:    83.2493  MISS %:    16.7507   MPKI: 10.468
L1D PREFETCH  REQUESTED:   98633593  ISSUED:   59464572  USEFUL:    2161715  USELESS:       6536
L1D USEFUL LOAD PREFETCHES:    2161715 PREFETCH ISSUED TO LOWER LEVEL:   72036457  ACCURACY: 3.00086
L1D TIMELY PREFETCHES:    2161715 LATE PREFETCHES: 267215 DROPPED PREFETCHES: 1770477
L1D PREFETCHES SAME FILL-ORIGIN LEVEL: 4453570 DIFFERENT FILL-ORIGIN LEVEL: 67582887
L1D AVERAGE MISS LATENCY: 1380.8 cycles
L1D RQ	ACCESS:   52066029	FORWARD:          0	MERGED:   33738931	TO_CACHE:   18313664
L1D WQ	ACCESS:   16069801	FORWARD:      13434	MERGED:       9037	TO_CACHE:   16060764
L1D PQ	ACCESS:   32379233	FORWARD:          0	MERGED:    5293894	TO_CACHE:   27085339

L1D UNIQUE REGIONS ACCESSED: 0
L1D REGIONS CONFLICTS: 0
L1D Cross Page Prefetch Requests: 32207460
L1D Same Page Prefetch Requests: 22606321
L1D ROI Sum of L1D PQ occupancy: 4429704564
L1D PREFETCHES PUSHED FROM L2C: 0
L1I TOTAL     ACCESS:   44603264  HIT:   44603159  MISS:        105  HIT %:    99.9998  MISS %: 0.000235409   MPKI: 0.000525
L1I LOAD      ACCESS:   44603264  HIT:   44603159  MISS:        105  HIT %:    99.9998  MISS %: 0.000235409   MPKI: 0.000525
L1I PREFETCH  REQUESTED:          0  ISSUED:          0  USEFUL:          0  USELESS:          0
L1I USEFUL LOAD PREFETCHES:          0 PREFETCH ISSUED TO LOWER LEVEL:          0  ACCURACY: -nan
L1I TIMELY PREFETCHES:          0 LATE PREFETCHES: 0 DROPPED PREFETCHES: 0
L1I PREFETCHES SAME FILL-ORIGIN LEVEL: 0 DIFFERENT FILL-ORIGIN LEVEL: 0
L1I AVERAGE MISS LATENCY: 1333.88 cycles
L1I RQ	ACCESS:   57368689	FORWARD:          0	MERGED:   11320362	TO_CACHE:   46048327

BTB TOTAL     ACCESS:    9506863  HIT:    9506723  MISS:        140  HIT %:    99.9985  MISS %: 0.00147262   MPKI: 0.0007
BTB BRANCH_DIRECT_JUMP	ACCESS:         38  HIT:         17  MISS:         21
BTB BRANCH_INDIRECT	ACCESS:          0  HIT:          0  MISS:          0
BTB BRANCH_CONDITIONAL	ACCESS:    7898437  HIT:    7898370  MISS:         67
BTB BRANCH_DIRECT_CALL	ACCESS:     804194  HIT:     804170  MISS:         24
BTB BRANCH_INDIRECT_CALL	ACCESS:          0  HIT:          0  MISS:          0
BTB BRANCH_RETURN	ACCESS:     804194  HIT:     804166  MISS:         28
BTB BRANCH_OTHER ACCESS:          0  HIT:          0  MISS:          0

L2C TOTAL     ACCESS:   11818570  HIT:    6034006  MISS:    5784564  HIT %:    51.0553  MISS %:    48.9447   MPKI: 28.9228
L2C LOAD      ACCESS:     983772  HIT:     598997  MISS:     384775  HIT %:    60.8878  MISS %:    39.1122   MPKI: 1.92387
L2C DATA LOAD MPKI: 1.92335
L2C INSTRUCTION LOAD MPKI: 0.000525
L2C RFO       ACCESS:    1393758  HIT:         48  MISS:    1393710  HIT %: 0.00344393  MISS %:    99.9966   MPKI: 6.96855
L2C PREFETCH  ACCESS:    6290582  HIT:    2597859  MISS:    3692723  HIT %:    41.2976  MISS %:    58.7024   MPKI: 18.4636
L2C DATA PREFETCH MPKI: 18.4636
L2C INSTRUCTION PREFETCH MPKI: 0
L2C WRITEBACK ACCESS:    1873249  HIT:    1611926  MISS:     261323  HIT %:    86.0497  MISS %:    13.9503   MPKI: 1.30661
L2C LOAD TRANSLATION ACCESS:      32272  HIT:      31061  MISS:       1211  HIT %:    96.2475  MISS %:    3.75248   MPKI: 0.006055
L2C TRANSLATION FROM L1D PREFETCHER ACCESS:    1244937  HIT:    1194115  MISS:      50822  HIT %:    95.9177  MISS %:    4.08229   MPKI: 0.25411
L2C PREFETCH  REQUESTED:          0  ISSUED:          0  USEFUL:     659281  USELESS:    3176549
L2C USEFUL LOAD PREFETCHES:     659281 PREFETCH ISSUED TO LOWER LEVEL:    3964277  ACCURACY: 16.6305
L2C TIMELY PREFETCHES:     659281 LATE PREFETCHES: 186213 DROPPED PREFETCHES: 0
L2C PREFETCHES SAME FILL-ORIGIN LEVEL: 2829617 DIFFERENT FILL-ORIGIN LEVEL: 0
L2C AVERAGE MISS LATENCY: 2218.68 cycles
L2C RQ	ACCESS:    3757550	FORWARD:          0	MERGED:          0	TO_CACHE:    3757550
L2C WQ	ACCESS:    1906070	FORWARD:          0	MERGED:          0	TO_CACHE:    1906070
L2C PQ	ACCESS:   10876807	FORWARD:          0	MERGED:     603365	TO_CACHE:   10273442

L2C Instructions Evicting Data 77
L2C Translations Evicting Data 45639
L2C Data Evicting Data 5550460
L2C Instructions Evicting Instructions 0
L2C Translations Evicting Instructions 45
L2C Data Evicting Instructions 54
L2C Instructions Evicting Translations 28
L2C Translations Evicting Translations 8269
L2C Data Evicting Translations 42774
L2C Dense regions hint from L2: 0
PSCL5 TOTAL     ACCESS:    1040059  HIT:    1040059  MISS:          0  HIT %:        100  MISS %:          0   MPKI: 0
PSCL5 LOAD TRANSLATION ACCESS:      32228  HIT:      32228  MISS:          0  HIT %:        100  MISS %:          0   MPKI: 0
PSCL5 TRANSLATION FROM L1D PREFETCHER ACCESS:    1007831  HIT:    1007831  MISS:          0  HIT %:        100  MISS %:          0   MPKI: 0
PSCL5 PREFETCH  REQUESTED:          0  ISSUED:          0  USEFUL:          0  USELESS:          0
PSCL5 USEFUL LOAD PREFETCHES:          0 PREFETCH ISSUED TO LOWER LEVEL:          0  ACCURACY: -nan
PSCL5 TIMELY PREFETCHES:          0 LATE PREFETCHES: 0 DROPPED PREFETCHES: 0
PSCL5 PREFETCHES SAME FILL-ORIGIN LEVEL: 0 DIFFERENT FILL-ORIGIN LEVEL: 0

PSCL4 TOTAL     ACCESS:    1040059  HIT:    1040059  MISS:          0  HIT %:        100  MISS %:          0   MPKI: 0
PSCL4 LOAD TRANSLATION ACCESS:      32228  HIT:      32228  MISS:          0  HIT %:        100  MISS %:          0   MPKI: 0
PSCL4 TRANSLATION FROM L1D PREFETCHER ACCESS:    1007831  HIT:    1007831  MISS:          0  HIT %:        100  MISS %:          0   MPKI: 0
PSCL4 PREFETCH  REQUESTED:          0  ISSUED:          0  USEFUL:          0  USELESS:          0
PSCL4 USEFUL LOAD PREFETCHES:          0 PREFETCH ISSUED TO LOWER LEVEL:          0  ACCURACY: -nan
PSCL4 TIMELY PREFETCHES:          0 LATE PREFETCHES: 0 DROPPED PREFETCHES: 0
PSCL4 PREFETCHES SAME FILL-ORIGIN LEVEL: 0 DIFFERENT FILL-ORIGIN LEVEL: 0

PSCL3 TOTAL     ACCESS:    1040059  HIT:    1040059  MISS:          0  HIT %:        100  MISS %:          0   MPKI: 0
PSCL3 LOAD TRANSLATION ACCESS:      32228  HIT:      32228  MISS:          0  HIT %:        100  MISS %:          0   MPKI: 0
PSCL3 TRANSLATION FROM L1D PREFETCHER ACCESS:    1007831  HIT:    1007831  MISS:          0  HIT %:        100  MISS %:          0   MPKI: 0
PSCL3 PREFETCH  REQUESTED:          0  ISSUED:          0  USEFUL:          0  USELESS:          0
PSCL3 USEFUL LOAD PREFETCHES:          0 PREFETCH ISSUED TO LOWER LEVEL:          0  ACCURACY: -nan
PSCL3 TIMELY PREFETCHES:          0 LATE PREFETCHES: 0 DROPPED PREFETCHES: 0
PSCL3 PREFETCHES SAME FILL-ORIGIN LEVEL: 0 DIFFERENT FILL-ORIGIN LEVEL: 0

PSCL2 TOTAL     ACCESS:     802397  HIT:     801529  MISS:        868  HIT %:    99.8918  MISS %:   0.108176   MPKI: 0.00434
PSCL2 LOAD TRANSLATION ACCESS:      32991  HIT:      32123  MISS:        868  HIT %:     97.369  MISS %:    2.63102   MPKI: 0.00434
PSCL2 TRANSLATION FROM L1D PREFETCHER ACCESS:     769406  HIT:     769406  MISS:          0  HIT %:        100  MISS %:          0   MPKI: 0
PSCL2 PREFETCH  REQUESTED:          0  ISSUED:          0  USEFUL:          0  USELESS:          0
PSCL2 USEFUL LOAD PREFETCHES:          0 PREFETCH ISSUED TO LOWER LEVEL:          0  ACCURACY: -nan
PSCL2 TIMELY PREFETCHES:          0 LATE PREFETCHES: 0 DROPPED PREFETCHES: 0
PSCL2 PREFETCHES SAME FILL-ORIGIN LEVEL: 0 DIFFERENT FILL-ORIGIN LEVEL: 0

LLC TOTAL     ACCESS:    7391722  HIT:    1729720  MISS:    5662002  HIT %:    23.4008  MISS %:    76.5992   MPKI: 28.31
LLC LOAD      ACCESS:     200138  HIT:        147  MISS:     199991  HIT %:  0.0734493  MISS %:    99.9266   MPKI: 0.999955
LLC RFO       ACCESS:    1393710  HIT:       2303  MISS:    1391407  HIT %:   0.165242  MISS %:    99.8348   MPKI: 6.95703
LLC PREFETCH  ACCESS:    3877360  HIT:       4011  MISS:    3873349  HIT %:   0.103447  MISS %:    99.8966   MPKI: 19.3667
LLC WRITEBACK ACCESS:    1868481  HIT:    1716110  MISS:     152371  HIT %:    91.8452  MISS %:    8.15481   MPKI: 0.761855
LLC LOAD TRANSLATION ACCESS:       1211  HIT:         96  MISS:       1115  HIT %:    7.92733  MISS %:    92.0727   MPKI: 0.005575
LLC TRANSLATION FROM L1D PREFETCHER ACCESS:      50822  HIT:       7053  MISS:      43769  HIT %:    13.8778  MISS %:    86.1222   MPKI: 0.218845
LLC PREFETCH  REQUESTED:          0  ISSUED:          0  USEFUL:      17102  USELESS:   15943023
LLC USEFUL LOAD PREFETCHES:      17102 PREFETCH ISSUED TO LOWER LEVEL: 1637743121  ACCURACY: 0.00104424
LLC TIMELY PREFETCHES:      17102 LATE PREFETCHES: 0 DROPPED PREFETCHES: 0
LLC PREFETCHES SAME FILL-ORIGIN LEVEL: 0 DIFFERENT FILL-ORIGIN LEVEL: 0
LLC AVERAGE MISS LATENCY: 6941.97 cycles
LLC RQ	ACCESS:    6698787	FORWARD:          0	MERGED:          0	TO_CACHE:    6698787
LLC WQ	ACCESS:    7556066	FORWARD:          0	MERGED:          0	TO_CACHE:    7556066
LLC PQ	ACCESS:   15703029	FORWARD:          0	MERGED:          0	TO_CACHE:   15703029

LLC Dense regions hint to LLC: 0

RAW hits: 1074013
Loads Generated: 51506438
Loads sent to L1D: 50432422
Stores Generated: 15792671
Stores sent to L1D: 15792671
Major fault: 0 Minor fault: 90397
Allocated PAGES: 361588

CPU 3 cumulative IPC: 0.273159 instructions: 200000001 cycles: 732174823
ITLB TOTAL     ACCESS:   32211325  HIT:   32211312  MISS:         13  HIT %:        100  MISS %: 4.03585e-05   MPKI: 6.5e-05
ITLB LOAD TRANSLATION ACCESS:   32211325  HIT:   32211312  MISS:         13  HIT %:        100  MISS %: 4.03585e-05   MPKI: 6.5e-05
ITLB PREFETCH  REQUESTED:          0  ISSUED:          0  USEFUL:          0  USELESS:          0
ITLB USEFUL LOAD PREFETCHES:          0 PREFETCH ISSUED TO LOWER LEVEL:          0  ACCURACY: -nan
ITLB TIMELY PREFETCHES:          0 LATE PREFETCHES: 0 DROPPED PREFETCHES: 0
ITLB PREFETCHES SAME FILL-ORIGIN LEVEL: 0 DIFFERENT FILL-ORIGIN LEVEL: 0
ITLB AVERAGE MISS LATENCY: 1428.15 cycles
ITLB RQ	ACCESS:   45162255	FORWARD:          0	MERGED:   12564758	TO_CACHE:   32597497

DTLB TOTAL     ACCESS:   24113307  HIT:   23695647  MISS:     417660  HIT %:    98.2679  MISS %:    1.73207   MPKI: 2.0883
DTLB LOAD TRANSLATION ACCESS:   24113307  HIT:   23695647  MISS:     417660  HIT %:    98.2679  MISS %:    1.73207   MPKI: 2.0883
DTLB PREFETCH  REQUESTED:          0  ISSUED:          0  USEFUL:          0  USELESS:          0
DTLB USEFUL LOAD PREFETCHES:          0 PREFETCH ISSUED TO LOWER LEVEL:          0  ACCURACY: -nan
DTLB TIMELY PREFETCHES:          0 LATE PREFETCHES: 0 DROPPED PREFETCHES: 0
DTLB PREFETCHES SAME FILL-ORIGIN LEVEL: 0 DIFFERENT FILL-ORIGIN LEVEL: 0
DTLB AVERAGE MISS LATENCY: 70.9237 cycles
DTLB RQ	ACCESS:   33826122	FORWARD:          0	MERGED:    9048369	TO_CACHE:   24777753

STLB TOTAL     ACCESS:    9009201  HIT:    8591030  MISS:     418171  HIT %:    95.3584  MISS %:     4.6416   MPKI: 2.09085
STLB LOAD TRANSLATION ACCESS:     417673  HIT:     381044  MISS:      36629  HIT %:    91.2302  MISS %:    8.76978   MPKI: 0.183145
STLB TRANSLATION FROM L1D PREFETCHER ACCESS:    8591528  HIT:    8209986  MISS:     381542  HIT %:    95.5591  MISS %:    4.44091   MPKI: 1.90771
STLB PREFETCH  REQUESTED:          0  ISSUED:          0  USEFUL:     387046  USELESS:         79
STLB USEFUL LOAD PREFETCHES:     387046 PREFETCH ISSUED TO LOWER LEVEL:          0  ACCURACY: inf
STLB TIMELY PREFETCHES:     387046 LATE PREFETCHES: 7804 DROPPED PREFETCHES: 635671
STLB PREFETCHES SAME FILL-ORIGIN LEVEL: 0 DIFFERENT FILL-ORIGIN LEVEL: 0
STLB AVERAGE MISS LATENCY: 331.081 cycles
STLB RQ	ACCESS:   26374753	FORWARD:          0	MERGED:   16395650	TO_CACHE:    9979103

STLB Hit, L1D data hit: 0
STLB Hit, L2C data hit: 0
STLB Hit, LLC data hit: 0
STLB Hit, LLC data miss: 0
STLB STLB hints to L2: 0
L1D TOTAL     ACCESS:   37701298  HIT:   32965741  MISS:    4735557  HIT %:    87.4393  MISS %:    12.5607   MPKI: 23.6778
L1D LOAD      ACCESS:   17282441  HIT:   16022210  MISS:    1260231  HIT %:     92.708  MISS %:    7.29197   MPKI: 6.30115
L1D RFO       ACCESS:    8168107  HIT:    6774340  MISS:    1393767  HIT %:    82.9365  MISS %:    17.0635   MPKI: 6.96883
L1D PREFETCH  ACCESS:   12250750  HIT:   10169191  MISS:    2081559  HIT %:    83.0087  MISS %:    16.9913   MPKI: 10.4078
L1D PREFETCH  REQUESTED:   94995847  ISSUED:   57019399  USEFUL:    2102236  USELESS:       6392
L1D USEFUL LOAD PREFETCHES:    2102236 PREFETCH ISSUED TO LOWER LEVEL:   74797237  ACCURACY: 2.81058
L1D TIMELY PREFETCHES:    2102236 LATE PREFETCHES: 265034 DROPPED PREFETCHES: 1768014
L1D PREFETCHES SAME FILL-ORIGIN LEVEL: 4343519 DIFFERENT FILL-ORIGIN LEVEL: 70453718
L1D AVERAGE MISS LATENCY: 1386.38 cycles
L1D RQ	ACCESS:   51057221	FORWARD:          0	MERGED:   33107722	TO_CACHE:   17936445
L1D WQ	ACCESS:   15898820	FORWARD:      13054	MERGED:       9143	TO_CACHE:   15889677
L1D PQ	ACCESS:   31068122	FORWARD:          0	MERGED:    5116845	TO_CACHE:   25951277

L1D UNIQUE REGIONS ACCESSED: 0
L1D REGIONS CONFLICTS: 0
L1D Cross Page Prefetch Requests: 31312394
L1D Same Page Prefetch Requests: 22237643
L1D ROI Sum of L1D PQ occupancy: 4504845715
L1D PREFETCHES PUSHED FROM L2C: 0
L1I TOTAL     ACCESS:   44608514  HIT:   44608409  MISS:        105  HIT %:    99.9998  MISS %: 0.000235381   MPKI: 0.000525
L1I LOAD      ACCESS:   44608514  HIT:   44608409  MISS:        105  HIT %:    99.9998  MISS %: 0.000235381   MPKI: 0.000525
L1I PREFETCH  REQUESTED:          0  ISSUED:          0  USEFUL:          0  USELESS:          0
L1I USEFUL LOAD PREFETCHES:          0 PREFETCH ISSUED TO LOWER LEVEL:          0  ACCURACY: -nan
L1I TIMELY PREFETCHES:          0 LATE PREFETCHES: 0 DROPPED PREFETCHES: 0
L1I PREFETCHES SAME FILL-ORIGIN LEVEL: 0 DIFFERENT FILL-ORIGIN LEVEL: 0
L1I AVERAGE MISS LATENCY: 1293.14 cycles
L1I RQ	ACCESS:   56286958	FORWARD:          0	MERGED:   11124703	TO_CACHE:   45162255

BTB TOTAL     ACCESS:    9506855  HIT:    9506710  MISS:        145  HIT %:    99.9985  MISS %: 0.00152522   MPKI: 0.000725
BTB BRANCH_DIRECT_JUMP	ACCESS:         38  HIT:         17  MISS:         21
BTB BRANCH_INDIRECT	ACCESS:          0  HIT:          0  MISS:          0
BTB BRANCH_CONDITIONAL	ACCESS:    7898431  HIT:    7898361  MISS:         70
BTB BRANCH_DIRECT_CALL	ACCESS:     804193  HIT:     804168  MISS:         25
BTB BRANCH_INDIRECT_CALL	ACCESS:          0  HIT:          0  MISS:          0
BTB BRANCH_RETURN	ACCESS:     804193  HIT:     804164  MISS:         29
BTB BRANCH_OTHER ACCESS:          0  HIT:          0  MISS:          0

L2C TOTAL     ACCESS:   11842465  HIT:    6079664  MISS:    5762801  HIT %:    51.3378  MISS %:    48.6622   MPKI: 28.814
L2C LOAD      ACCESS:     996439  HIT:     599767  MISS:     396672  HIT %:     60.191  MISS %:     39.809   MPKI: 1.98336
L2C DATA LOAD MPKI: 1.98283
L2C INSTRUCTION LOAD MPKI: 0.000525
L2C RFO       ACCESS:    1393768  HIT:         32  MISS:    1393736  HIT %: 0.00229593  MISS %:    99.9977   MPKI: 6.96868
L2C PREFETCH  ACCESS:    6292371  HIT:    2629379  MISS:    3662992  HIT %:    41.7868  MISS %:    58.2132   MPKI: 18.315
L2C DATA PREFETCH MPKI: 18.315
L2C INSTRUCTION PREFETCH MPKI: 0
L2C WRITEBACK ACCESS:    1873257  HIT:    1615828  MISS:     257429  HIT %:    86.2577  MISS %:    13.7423   MPKI: 1.28714
L2C LOAD TRANSLATION ACCESS:      32286  HIT:      31074  MISS:       1212  HIT %:    96.2461  MISS %:    3.75395   MPKI: 0.00606
L2C TRANSLATION FROM L1D PREFETCHER ACCESS:    1254344  HIT:    1203584  MISS:      50760  HIT %:    95.9533  MISS %:    4.04674   MPKI: 0.2538
L2C PREFETCH  REQUESTED:          0  ISSUED:          0  USEFUL:     655304  USELESS:    3097204
L2C USEFUL LOAD PREFETCHES:     655304 PREFETCH ISSUED TO LOWER LEVEL:    3884700  ACCURACY: 16.8688
L2C TIMELY PREFETCHES:     655304 LATE PREFETCHES: 188882 DROPPED PREFETCHES: 0
L2C PREFETCHES SAME FILL-ORIGIN LEVEL: 2766516 DIFFERENT FILL-ORIGIN LEVEL: 0
L2C AVERAGE MISS LATENCY: 2226.3 cycles
L2C RQ	ACCESS:    3710081	FORWARD:          0	MERGED:          0	TO_CACHE:    3710081
L2C WQ	ACCESS:    1885824	FORWARD:          0	MERGED:          0	TO_CACHE:    1885824
L2C PQ	ACCESS:   10609952	FORWARD:          0	MERGED:     595840	TO_CACHE:   10014112

L2C Instructions Evicting Data 76
L2C Translations Evicting Data 44662
L2C Data Evicting Data 5458109
L2C Instructions Evicting Instructions 0
L2C Translations Evicting Instructions 25
L2C Data Evicting Instructions 77
L2C Instructions Evicting Translations 29
L2C Translations Evicting Translations 8017
L2C Data Evicting Translations 41908
L2C Dense regions hint from L2: 0
PSCL5 TOTAL     ACCESS:    1048426  HIT:    1048426  MISS:          0  HIT %:        100  MISS %:          0   MPKI: 0
PSCL5 LOAD TRANSLATION ACCESS:      32243  HIT:      32243  MISS:          0  HIT %:        100  MISS %:          0   MPKI: 0
PSCL5 TRANSLATION FROM L1D PREFETCHER ACCESS:    1016183  HIT:    1016183  MISS:          0  HIT %:        100  MISS %:          0   MPKI: 0
PSCL5 PREFETCH  REQUESTED:          0  ISSUED:          0  USEFUL:          0  USELESS:          0
PSCL5 USEFUL LOAD PREFETCHES:          0 PREFETCH ISSUED TO LOWER LEVEL:          0  ACCURACY: -nan
PSCL5 TIMELY PREFETCHES:          0 LATE PREFETCHES: 0 DROPPED PREFETCHES: 0
PSCL5 PREFETCHES SAME FILL-ORIGIN LEVEL: 0 DIFFERENT FILL-ORIGIN LEVEL: 0

PSCL4 TOTAL     ACCESS:    1048426  HIT:    1048426  MISS:          0  HIT %:        100  MISS %:          0   MPKI: 0
PSCL4 LOAD TRANSLATION ACCESS:      32243  HIT:      32243  MISS:          0  HIT %:        100  MISS %:          0   MPKI: 0
PSCL4 TRANSLATION FROM L1D PREFETCHER ACCESS:    1016183  HIT:    1016183  MISS:          0  HIT %:        100  MISS %:          0   MPKI: 0
PSCL4 PREFETCH  REQUESTED:          0  ISSUED:          0  USEFUL:          0  USELESS:          0
PSCL4 USEFUL LOAD PREFETCHES:          0 PREFETCH ISSUED TO LOWER LEVEL:          0  ACCURACY: -nan
PSCL4 TIMELY PREFETCHES:          0 LATE PREFETCHES: 0 DROPPED PREFETCHES: 0
PSCL4 PREFETCHES SAME FILL-ORIGIN LEVEL: 0 DIFFERENT FILL-ORIGIN LEVEL: 0

PSCL3 TOTAL     ACCESS:    1048426  HIT:    1048426  MISS:          0  HIT %:        100  MISS %:          0   MPKI: 0
PSCL3 LOAD TRANSLATION ACCESS:      32243  HIT:      32243  MISS:          0  HIT %:        100  MISS %:          0   MPKI: 0
PSCL3 TRANSLATION FROM L1D PREFETCHER ACCESS:    1016183  HIT:    1016183  MISS:          0  HIT %:        100  MISS %:          0   MPKI: 0
PSCL3 PREFETCH  REQUESTED:          0  ISSUED:          0  USEFUL:          0  USELESS:          0
PSCL3 USEFUL LOAD PREFETCHES:          0 PREFETCH ISSUED TO LOWER LEVEL:          0  ACCURACY: -nan
PSCL3 TIMELY PREFETCHES:          0 LATE PREFETCHES: 0 DROPPED PREFETCHES: 0
PSCL3 PREFETCHES SAME FILL-ORIGIN LEVEL: 0 DIFFERENT FILL-ORIGIN LEVEL: 0

PSCL2 TOTAL     ACCESS:     809595  HIT:     808727  MISS:        868  HIT %:    99.8928  MISS %:   0.107214   MPKI: 0.00434
PSCL2 LOAD TRANSLATION ACCESS:      33007  HIT:      32139  MISS:        868  HIT %:    97.3703  MISS %:    2.62975   MPKI: 0.00434
PSCL2 TRANSLATION FROM L1D PREFETCHER ACCESS:     776588  HIT:     776588  MISS:          0  HIT %:        100  MISS %:          0   MPKI: 0
PSCL2 PREFETCH  REQUESTED:          0  ISSUED:          0  USEFUL:          0  USELESS:          0
PSCL2 USEFUL LOAD PREFETCHES:          0 PREFETCH ISSUED TO LOWER LEVEL:          0  ACCURACY: -nan
PSCL2 TIMELY PREFETCHES:          0 LATE PREFETCHES: 0 DROPPED PREFETCHES: 0
PSCL2 PREFETCHES SAME FILL-ORIGIN LEVEL: 0 DIFFERENT FILL-ORIGIN LEVEL: 0

LLC TOTAL     ACCESS:    7373899  HIT:     722906  MISS:    6650993  HIT %:    9.80358  MISS %:    90.1964   MPKI: 33.255
LLC LOAD      ACCESS:     208432  HIT:         54  MISS:     208378  HIT %:  0.0259077  MISS %:    99.9741   MPKI: 1.04189
LLC RFO       ACCESS:    1393736  HIT:        886  MISS:    1392850  HIT %:  0.0635701  MISS %:    99.9364   MPKI: 6.96425
LLC PREFETCH  ACCESS:    3851232  HIT:       2215  MISS:    3849017  HIT %:  0.0575141  MISS %:    99.9425   MPKI: 19.2451
LLC WRITEBACK ACCESS:    1868527  HIT:     717824  MISS:    1150703  HIT %:    38.4166  MISS %:    61.5834   MPKI: 5.75351
LLC LOAD TRANSLATION ACCESS:       1212  HIT:         24  MISS:       1188  HIT %:     1.9802  MISS %:    98.0198   MPKI: 0.00594
LLC TRANSLATION FROM L1D PREFETCHER ACCESS:      50760  HIT:       1903  MISS:      48857  HIT %:    3.74901  MISS %:     96.251   MPKI: 0.244285
LLC PREFETCH  REQUESTED:          0  ISSUED:          0  USEFUL:      17102  USELESS:   15943023
LLC USEFUL LOAD PREFETCHES:      17102 PREFETCH ISSUED TO LOWER LEVEL: 1637743121  ACCURACY: 0.00104424
LLC TIMELY PREFETCHES:      17102 LATE PREFETCHES: 0 DROPPED PREFETCHES: 0
LLC PREFETCHES SAME FILL-ORIGIN LEVEL: 0 DIFFERENT FILL-ORIGIN LEVEL: 0
LLC AVERAGE MISS LATENCY: 5909.71 cycles
LLC RQ	ACCESS:    6698787	FORWARD:          0	MERGED:          0	TO_CACHE:    6698787
LLC WQ	ACCESS:    7556066	FORWARD:          0	MERGED:          0	TO_CACHE:    7556066
LLC PQ	ACCESS:   15703029	FORWARD:          0	MERGED:          0	TO_CACHE:   15703029

LLC Dense regions hint to LLC: 0

RAW hits: 1074926
Loads Generated: 51506438
Loads sent to L1D: 50431505
Stores Generated: 15792669
Stores sent to L1D: 15792673
Major fault: 0 Minor fault: 90397
Allocated PAGES: 361588

DRAM Statistics
 CHANNEL 0
 RQ ROW_BUFFER_HIT:   11150849  ROW_BUFFER_MISS:   11210560
 DBUS_CONGESTED:         17
 WQ ROW_BUFFER_HIT:     530412  ROW_BUFFER_MISS:    6958695  FULL:        676

 AVG_CONGESTED_CYCLE: 5
 All warmup complete: 5
Channel 0 Bank busy for read cycles: 0
Channel 0 Bank busy for write cycles: 0
Channel 0
Rank 0
0banks busy for read cycles: 1240
0banks busy for write cycles: 0
1banks busy for read cycles: 893221
1banks busy for write cycles: 766418
2banks busy for read cycles: 1879162
2banks busy for write cycles: 6273311
3banks busy for read cycles: 4299498
3banks busy for write cycles: 282035640
4banks busy for read cycles: 11963465
4banks busy for write cycles: 7191758
5banks busy for read cycles: 41819756
5banks busy for write cycles: 3985694
6banks busy for read cycles: 154076445
6banks busy for write cycles: 3842716
7banks busy for read cycles: 106284868
7banks busy for write cycles: 6398571
8banks busy for read cycles: 69541396
8banks busy for write cycles: 34811488

CPU 0 Branch Prediction Accuracy: 99.9983% MPKI: 0.000785728 Average ROB Occupancy at Mispredict: 30.7055
Branch types
NOT_BRANCH: 197686613 95.2976%
BRANCH_DIRECT_JUMP: 38 1.83184e-05%
BRANCH_INDIRECT: 0 0%
BRANCH_CONDITIONAL: 8113562 3.91126%
BRANCH_DIRECT_CALL: 820731 0.395645%
BRANCH_INDIRECT_CALL: 0 0%
BRANCH_RETURN: 820731 0.395645%
BRANCH_OTHER: 0 0%


CPU 1 Branch Prediction Accuracy: 99.9983% MPKI: 0.000814967 Average ROB Occupancy at Mispredict: 31.9755
Branch types
NOT_BRANCH: 190492997 95.2465%
BRANCH_DIRECT_JUMP: 38 1.9e-05%
BRANCH_INDIRECT: 0 0%
BRANCH_CONDITIONAL: 7898581 3.94929%
BRANCH_DIRECT_CALL: 804194 0.402097%
BRANCH_INDIRECT_CALL: 0 0%
BRANCH_RETURN: 804194 0.402097%
BRANCH_OTHER: 0 0%


CPU 2 Branch Prediction Accuracy: 99.9983% MPKI: 0.000789087 Average ROB Occupancy at Mispredict: 32.9939
Branch types
NOT_BRANCH: 196837799 95.2916%
BRANCH_DIRECT_JUMP: 38 1.83963e-05%
BRANCH_INDIRECT: 0 0%
BRANCH_CONDITIONAL: 8088196 3.9156%
BRANCH_DIRECT_CALL: 818780 0.396382%
BRANCH_INDIRECT_CALL: 0 0%
BRANCH_RETURN: 818780 0.396382%
BRANCH_OTHER: 0 0%


CPU 3 Branch Prediction Accuracy: 99.9983% MPKI: 0.000804883 Average ROB Occupancy at Mispredict: 32.0429
Branch types
NOT_BRANCH: 192923196 95.2641%
BRANCH_DIRECT_JUMP: 38 1.87641e-05%
BRANCH_INDIRECT: 0 0%
BRANCH_CONDITIONAL: 7971207 3.93613%
BRANCH_DIRECT_CALL: 809780 0.399864%
BRANCH_INDIRECT_CALL: 0 0%
BRANCH_RETURN: 809780 0.399864%
BRANCH_OTHER: 0 0%

DRAM PAGES: 1048576
Allocated PAGES: 361588
