
*** ChampSim Multicore Out-of-Order Simulator ***

Warmup Instructions: 50000000
Simulation Instructions: 200000000
Number of CPUs: 4
LLC sets: 8192
LLC ways: 16
Off-chip DRAM Size: 4096 MB Channels: 1 Width: 64-bit Data Rate: 6400 MT/s
CPU 0 runs ./traces/ligra/ligra_Radii.com-lj.ungraph.gcc_6.3.0_O3.drop_750M.length_250M.champsimtrace.xz
.xz
CPU 1 runs ./traces/ligra/ligra_Radii.com-lj.ungraph.gcc_6.3.0_O3.drop_750M.length_250M.champsimtrace.xz
.xz
CPU 2 runs ./traces/ligra/ligra_Radii.com-lj.ungraph.gcc_6.3.0_O3.drop_750M.length_250M.champsimtrace.xz
.xz
CPU 3 runs ./traces/ligra/ligra_Radii.com-lj.ungraph.gcc_6.3.0_O3.drop_750M.length_250M.champsimtrace.xz
.xz
BTB has LRU replacement policy
ITLB has LRU replacement policy
DTLB has LRU replacement policy
STLB has LRU replacement policy
L1I has LRU replacement policy
History Sets: 8
History Ways: 16
BERTI Size: 16
BERTI Stride Size: 8
L1D has LRU replacement policy
Initialize SRRIP state for L2C
Initialize DRRIP state for LLC
BTB has LRU replacement policy
ITLB has LRU replacement policy
DTLB has LRU replacement policy
STLB has LRU replacement policy
L1I has LRU replacement policy
History Sets: 8
History Ways: 16
BERTI Size: 16
BERTI Stride Size: 8
L1D has LRU replacement policy
Initialize SRRIP state for L2C
Initialize DRRIP state for LLC
BTB has LRU replacement policy
ITLB has LRU replacement policy
DTLB has LRU replacement policy
STLB has LRU replacement policy
L1I has LRU replacement policy
History Sets: 8
History Ways: 16
BERTI Size: 16
BERTI Stride Size: 8
L1D has LRU replacement policy
Initialize SRRIP state for L2C
Initialize DRRIP state for LLC
BTB has LRU replacement policy
ITLB has LRU replacement policy
DTLB has LRU replacement policy
STLB has LRU replacement policy
L1I has LRU replacement policy
History Sets: 8
History Ways: 16
BERTI Size: 16
BERTI Stride Size: 8
L1D has LRU replacement policy
Initialize SRRIP state for L2C
Initialize DRRIP state for LLC
Heartbeat CPU 0 instructions: 10000001 cycles: 3333345 heartbeat IPC: 2.99999 cumulative IPC: 2.99999 (Simulation time: 0 hr 1 min 48 sec) 
Heartbeat CPU 1 instructions: 10000001 cycles: 3333346 heartbeat IPC: 2.99999 cumulative IPC: 2.99999 (Simulation time: 0 hr 1 min 48 sec) 
Heartbeat CPU 2 instructions: 10000001 cycles: 3333347 heartbeat IPC: 2.99999 cumulative IPC: 2.99999 (Simulation time: 0 hr 1 min 48 sec) 
Heartbeat CPU 3 instructions: 10000001 cycles: 3333348 heartbeat IPC: 2.99999 cumulative IPC: 2.99999 (Simulation time: 0 hr 1 min 48 sec) 
Heartbeat CPU 0 instructions: 20000002 cycles: 6666678 heartbeat IPC: 3 cumulative IPC: 3 (Simulation time: 0 hr 3 min 27 sec) 
Heartbeat CPU 1 instructions: 20000002 cycles: 6666679 heartbeat IPC: 3 cumulative IPC: 2.99999 (Simulation time: 0 hr 3 min 27 sec) 
Heartbeat CPU 2 instructions: 20000002 cycles: 6666680 heartbeat IPC: 3 cumulative IPC: 2.99999 (Simulation time: 0 hr 3 min 27 sec) 
Heartbeat CPU 3 instructions: 20000002 cycles: 6666681 heartbeat IPC: 3 cumulative IPC: 2.99999 (Simulation time: 0 hr 3 min 27 sec) 
Heartbeat CPU 0 instructions: 30000000 cycles: 10000012 heartbeat IPC: 3 cumulative IPC: 3 (Simulation time: 0 hr 5 min 5 sec) 
Heartbeat CPU 1 instructions: 30000000 cycles: 10000013 heartbeat IPC: 3 cumulative IPC: 3 (Simulation time: 0 hr 5 min 5 sec) 
Heartbeat CPU 2 instructions: 30000000 cycles: 10000014 heartbeat IPC: 3 cumulative IPC: 3 (Simulation time: 0 hr 5 min 5 sec) 
Heartbeat CPU 3 instructions: 30000000 cycles: 10000015 heartbeat IPC: 3 cumulative IPC: 3 (Simulation time: 0 hr 5 min 5 sec) 
Heartbeat CPU 0 instructions: 40000002 cycles: 13333345 heartbeat IPC: 3 cumulative IPC: 3 (Simulation time: 0 hr 6 min 50 sec) 
Heartbeat CPU 1 instructions: 40000002 cycles: 13333346 heartbeat IPC: 3 cumulative IPC: 3 (Simulation time: 0 hr 6 min 50 sec) 
Heartbeat CPU 2 instructions: 40000002 cycles: 13333347 heartbeat IPC: 3 cumulative IPC: 3 (Simulation time: 0 hr 6 min 50 sec) 
Heartbeat CPU 3 instructions: 40000002 cycles: 13333348 heartbeat IPC: 3 cumulative IPC: 3 (Simulation time: 0 hr 6 min 50 sec) 
Heartbeat CPU 0 instructions: 50000000 cycles: 16666678 heartbeat IPC: 3 cumulative IPC: 3 (Simulation time: 0 hr 8 min 35 sec) 
Heartbeat CPU 1 instructions: 50000000 cycles: 16666679 heartbeat IPC: 3 cumulative IPC: 3 (Simulation time: 0 hr 8 min 35 sec) 
Heartbeat CPU 2 instructions: 50000000 cycles: 16666680 heartbeat IPC: 3 cumulative IPC: 3 (Simulation time: 0 hr 8 min 35 sec) 
Heartbeat CPU 3 instructions: 50000000 cycles: 16666681 heartbeat IPC: 3 cumulative IPC: 3 (Simulation time: 0 hr 8 min 35 sec) 

Warmup complete CPU 0 instructions: 50000013 cycles: 16666682 (Simulation time: 0 hr 8 min 35 sec) 
Warmup complete CPU 1 instructions: 50000010 cycles: 16666682 (Simulation time: 0 hr 8 min 35 sec) 
Warmup complete CPU 2 instructions: 50000007 cycles: 16666682 (Simulation time: 0 hr 8 min 35 sec) 
Warmup complete CPU 3 instructions: 50000004 cycles: 16666682 (Simulation time: 0 hr 8 min 35 sec) 

Heartbeat CPU 0 instructions: 60000003 cycles: 25204698 heartbeat IPC: 1.17123 cumulative IPC: 1.17123 (Simulation time: 0 hr 11 min 30 sec) 
Heartbeat CPU 1 instructions: 60000003 cycles: 25205880 heartbeat IPC: 1.17107 cumulative IPC: 1.17107 (Simulation time: 0 hr 11 min 30 sec) 
Heartbeat CPU 3 instructions: 60000003 cycles: 25206907 heartbeat IPC: 1.17093 cumulative IPC: 1.17093 (Simulation time: 0 hr 11 min 30 sec) 
Heartbeat CPU 2 instructions: 60000003 cycles: 25209849 heartbeat IPC: 1.17053 cumulative IPC: 1.17053 (Simulation time: 0 hr 11 min 30 sec) 
Heartbeat CPU 0 instructions: 70000001 cycles: 33740730 heartbeat IPC: 1.1715 cumulative IPC: 1.17137 (Simulation time: 0 hr 14 min 29 sec) 
Heartbeat CPU 1 instructions: 70000001 cycles: 33742302 heartbeat IPC: 1.17145 cumulative IPC: 1.17126 (Simulation time: 0 hr 14 min 29 sec) 
Heartbeat CPU 3 instructions: 70000001 cycles: 33744411 heartbeat IPC: 1.1713 cumulative IPC: 1.17112 (Simulation time: 0 hr 14 min 29 sec) 
Heartbeat CPU 2 instructions: 70000001 cycles: 33749427 heartbeat IPC: 1.17102 cumulative IPC: 1.17077 (Simulation time: 0 hr 14 min 29 sec) 
Heartbeat CPU 0 instructions: 80000002 cycles: 42293961 heartbeat IPC: 1.16915 cumulative IPC: 1.17063 (Simulation time: 0 hr 17 min 34 sec) 
Heartbeat CPU 1 instructions: 80000002 cycles: 42296481 heartbeat IPC: 1.16902 cumulative IPC: 1.17051 (Simulation time: 0 hr 17 min 34 sec) 
Heartbeat CPU 3 instructions: 80000002 cycles: 42299496 heartbeat IPC: 1.1689 cumulative IPC: 1.17037 (Simulation time: 0 hr 17 min 34 sec) 
Heartbeat CPU 2 instructions: 80000002 cycles: 42304453 heartbeat IPC: 1.1689 cumulative IPC: 1.17015 (Simulation time: 0 hr 17 min 34 sec) 
Heartbeat CPU 0 instructions: 90000002 cycles: 50877229 heartbeat IPC: 1.16506 cumulative IPC: 1.16923 (Simulation time: 0 hr 20 min 33 sec) 
Heartbeat CPU 1 instructions: 90000002 cycles: 50881199 heartbeat IPC: 1.16486 cumulative IPC: 1.16909 (Simulation time: 0 hr 20 min 33 sec) 
Heartbeat CPU 3 instructions: 90000002 cycles: 50882796 heartbeat IPC: 1.16505 cumulative IPC: 1.16904 (Simulation time: 0 hr 20 min 33 sec) 
Heartbeat CPU 2 instructions: 90000002 cycles: 50888083 heartbeat IPC: 1.16501 cumulative IPC: 1.16886 (Simulation time: 0 hr 20 min 33 sec) 
Heartbeat CPU 0 instructions: 100000002 cycles: 59450580 heartbeat IPC: 1.16641 cumulative IPC: 1.16866 (Simulation time: 0 hr 23 min 14 sec) 
Heartbeat CPU 1 instructions: 100000002 cycles: 59454251 heartbeat IPC: 1.16645 cumulative IPC: 1.16856 (Simulation time: 0 hr 23 min 14 sec) 
Heartbeat CPU 3 instructions: 100000002 cycles: 59457132 heartbeat IPC: 1.16627 cumulative IPC: 1.16848 (Simulation time: 0 hr 23 min 14 sec) 
Heartbeat CPU 2 instructions: 100000002 cycles: 59460938 heartbeat IPC: 1.16647 cumulative IPC: 1.16838 (Simulation time: 0 hr 23 min 15 sec) 
Heartbeat CPU 0 instructions: 110000000 cycles: 68018515 heartbeat IPC: 1.16714 cumulative IPC: 1.16841 (Simulation time: 0 hr 26 min 3 sec) 
Heartbeat CPU 1 instructions: 110000000 cycles: 68021927 heartbeat IPC: 1.16718 cumulative IPC: 1.16833 (Simulation time: 0 hr 26 min 3 sec) 
Heartbeat CPU 3 instructions: 110000000 cycles: 68025381 heartbeat IPC: 1.1671 cumulative IPC: 1.16825 (Simulation time: 0 hr 26 min 3 sec) 
Heartbeat CPU 2 instructions: 110000000 cycles: 68028937 heartbeat IPC: 1.16713 cumulative IPC: 1.16817 (Simulation time: 0 hr 26 min 3 sec) 
Heartbeat CPU 0 instructions: 120000002 cycles: 76618140 heartbeat IPC: 1.16284 cumulative IPC: 1.16761 (Simulation time: 0 hr 29 min 6 sec) 
Heartbeat CPU 1 instructions: 120000002 cycles: 76621042 heartbeat IPC: 1.16291 cumulative IPC: 1.16755 (Simulation time: 0 hr 29 min 6 sec) 
Heartbeat CPU 3 instructions: 120000002 cycles: 76624677 heartbeat IPC: 1.16289 cumulative IPC: 1.16748 (Simulation time: 0 hr 29 min 6 sec) 
Heartbeat CPU 2 instructions: 120000002 cycles: 76628615 heartbeat IPC: 1.16283 cumulative IPC: 1.16741 (Simulation time: 0 hr 29 min 6 sec) 
Heartbeat CPU 0 instructions: 130000001 cycles: 85220880 heartbeat IPC: 1.16242 cumulative IPC: 1.16696 (Simulation time: 0 hr 32 min 19 sec) 
Heartbeat CPU 1 instructions: 130000001 cycles: 85224260 heartbeat IPC: 1.16236 cumulative IPC: 1.1669 (Simulation time: 0 hr 32 min 19 sec) 
Heartbeat CPU 3 instructions: 130000001 cycles: 85227595 heartbeat IPC: 1.1624 cumulative IPC: 1.16685 (Simulation time: 0 hr 32 min 19 sec) 
Heartbeat CPU 2 instructions: 130000001 cycles: 85233053 heartbeat IPC: 1.16219 cumulative IPC: 1.16675 (Simulation time: 0 hr 32 min 19 sec) 
Heartbeat CPU 0 instructions: 140000002 cycles: 93804377 heartbeat IPC: 1.16503 cumulative IPC: 1.16674 (Simulation time: 0 hr 35 min 26 sec) 
Heartbeat CPU 1 instructions: 140000002 cycles: 93808787 heartbeat IPC: 1.16489 cumulative IPC: 1.16668 (Simulation time: 0 hr 35 min 26 sec) 
Heartbeat CPU 3 instructions: 140000002 cycles: 93811175 heartbeat IPC: 1.16502 cumulative IPC: 1.16664 (Simulation time: 0 hr 35 min 26 sec) 
Heartbeat CPU 2 instructions: 140000002 cycles: 93816517 heartbeat IPC: 1.16503 cumulative IPC: 1.16656 (Simulation time: 0 hr 35 min 26 sec) 
Heartbeat CPU 0 instructions: 150000002 cycles: 102382324 heartbeat IPC: 1.16578 cumulative IPC: 1.16665 (Simulation time: 0 hr 38 min 39 sec) 
Heartbeat CPU 1 instructions: 150000002 cycles: 102388173 heartbeat IPC: 1.16558 cumulative IPC: 1.16657 (Simulation time: 0 hr 38 min 39 sec) 
Heartbeat CPU 3 instructions: 150000002 cycles: 102393668 heartbeat IPC: 1.16516 cumulative IPC: 1.16649 (Simulation time: 0 hr 38 min 39 sec) 
Heartbeat CPU 2 instructions: 150000002 cycles: 102400207 heartbeat IPC: 1.165 cumulative IPC: 1.1664 (Simulation time: 0 hr 38 min 39 sec) 
Heartbeat CPU 0 instructions: 160000001 cycles: 110977585 heartbeat IPC: 1.16343 cumulative IPC: 1.16635 (Simulation time: 0 hr 41 min 45 sec) 
Heartbeat CPU 1 instructions: 160000001 cycles: 110983643 heartbeat IPC: 1.1634 cumulative IPC: 1.16628 (Simulation time: 0 hr 41 min 46 sec) 
Heartbeat CPU 3 instructions: 160000001 cycles: 110989856 heartbeat IPC: 1.16331 cumulative IPC: 1.1662 (Simulation time: 0 hr 41 min 46 sec) 
Heartbeat CPU 2 instructions: 160000001 cycles: 110995608 heartbeat IPC: 1.16341 cumulative IPC: 1.16613 (Simulation time: 0 hr 41 min 46 sec) 
Heartbeat CPU 0 instructions: 170000000 cycles: 119591577 heartbeat IPC: 1.1609 cumulative IPC: 1.1659 (Simulation time: 0 hr 44 min 40 sec) 
Heartbeat CPU 1 instructions: 170000000 cycles: 119596790 heartbeat IPC: 1.16102 cumulative IPC: 1.16584 (Simulation time: 0 hr 44 min 40 sec) 
Heartbeat CPU 3 instructions: 170000000 cycles: 119603435 heartbeat IPC: 1.16096 cumulative IPC: 1.16576 (Simulation time: 0 hr 44 min 40 sec) 
Heartbeat CPU 2 instructions: 170000000 cycles: 119609493 heartbeat IPC: 1.16092 cumulative IPC: 1.1657 (Simulation time: 0 hr 44 min 40 sec) 
Heartbeat CPU 0 instructions: 180000002 cycles: 128212138 heartbeat IPC: 1.16002 cumulative IPC: 1.16544 (Simulation time: 0 hr 47 min 51 sec) 
Heartbeat CPU 1 instructions: 180000002 cycles: 128215834 heartbeat IPC: 1.16022 cumulative IPC: 1.16541 (Simulation time: 0 hr 47 min 51 sec) 
Heartbeat CPU 3 instructions: 180000002 cycles: 128220890 heartbeat IPC: 1.16044 cumulative IPC: 1.16535 (Simulation time: 0 hr 47 min 51 sec) 
Heartbeat CPU 2 instructions: 180000002 cycles: 128227876 heartbeat IPC: 1.16031 cumulative IPC: 1.16528 (Simulation time: 0 hr 47 min 51 sec) 
Heartbeat CPU 0 instructions: 190000000 cycles: 136824349 heartbeat IPC: 1.16114 cumulative IPC: 1.16514 (Simulation time: 0 hr 50 min 38 sec) 
Heartbeat CPU 1 instructions: 190000000 cycles: 136830906 heartbeat IPC: 1.16076 cumulative IPC: 1.16507 (Simulation time: 0 hr 50 min 38 sec) 
Heartbeat CPU 3 instructions: 190000000 cycles: 136837518 heartbeat IPC: 1.16055 cumulative IPC: 1.16501 (Simulation time: 0 hr 50 min 38 sec) 
Heartbeat CPU 2 instructions: 190000000 cycles: 136843489 heartbeat IPC: 1.16068 cumulative IPC: 1.16495 (Simulation time: 0 hr 50 min 38 sec) 
Heartbeat CPU 0 instructions: 200000002 cycles: 145398061 heartbeat IPC: 1.16636 cumulative IPC: 1.16522 (Simulation time: 0 hr 53 min 37 sec) 
Heartbeat CPU 1 instructions: 200000002 cycles: 145403749 heartbeat IPC: 1.16647 cumulative IPC: 1.16517 (Simulation time: 0 hr 53 min 37 sec) 
Heartbeat CPU 3 instructions: 200000002 cycles: 145410191 heartbeat IPC: 1.1665 cumulative IPC: 1.16511 (Simulation time: 0 hr 53 min 37 sec) 
Heartbeat CPU 2 instructions: 200000002 cycles: 145415483 heartbeat IPC: 1.16659 cumulative IPC: 1.16506 (Simulation time: 0 hr 53 min 37 sec) 
Heartbeat CPU 0 instructions: 210000000 cycles: 153970362 heartbeat IPC: 1.16655 cumulative IPC: 1.1653 (Simulation time: 0 hr 56 min 37 sec) 
Heartbeat CPU 1 instructions: 210000000 cycles: 153977298 heartbeat IPC: 1.16638 cumulative IPC: 1.16524 (Simulation time: 0 hr 56 min 37 sec) 
Heartbeat CPU 3 instructions: 210000000 cycles: 153982815 heartbeat IPC: 1.1665 cumulative IPC: 1.16519 (Simulation time: 0 hr 56 min 37 sec) 
Heartbeat CPU 2 instructions: 210000000 cycles: 153988017 heartbeat IPC: 1.16652 cumulative IPC: 1.16515 (Simulation time: 0 hr 56 min 37 sec) 
Heartbeat CPU 0 instructions: 220000000 cycles: 162579651 heartbeat IPC: 1.16154 cumulative IPC: 1.16508 (Simulation time: 0 hr 59 min 37 sec) 
Heartbeat CPU 1 instructions: 220000000 cycles: 162583864 heartbeat IPC: 1.1619 cumulative IPC: 1.16504 (Simulation time: 0 hr 59 min 37 sec) 
Heartbeat CPU 3 instructions: 220000000 cycles: 162589413 heartbeat IPC: 1.1619 cumulative IPC: 1.165 (Simulation time: 0 hr 59 min 37 sec) 
Heartbeat CPU 2 instructions: 220000000 cycles: 162597574 heartbeat IPC: 1.1615 cumulative IPC: 1.16493 (Simulation time: 0 hr 59 min 37 sec) 
Heartbeat CPU 0 instructions: 230000001 cycles: 171189777 heartbeat IPC: 1.16142 cumulative IPC: 1.16487 (Simulation time: 1 hr 2 min 47 sec) 
Heartbeat CPU 1 instructions: 230000001 cycles: 171196203 heartbeat IPC: 1.16112 cumulative IPC: 1.16483 (Simulation time: 1 hr 2 min 48 sec) 
Heartbeat CPU 3 instructions: 230000001 cycles: 171202464 heartbeat IPC: 1.16103 cumulative IPC: 1.16478 (Simulation time: 1 hr 2 min 48 sec) 
Heartbeat CPU 2 instructions: 230000001 cycles: 171207656 heartbeat IPC: 1.16143 cumulative IPC: 1.16474 (Simulation time: 1 hr 2 min 48 sec) 
Heartbeat CPU 0 instructions: 240000002 cycles: 179790180 heartbeat IPC: 1.16274 cumulative IPC: 1.16476 (Simulation time: 1 hr 5 min 48 sec) 
Heartbeat CPU 1 instructions: 240000002 cycles: 179796437 heartbeat IPC: 1.16276 cumulative IPC: 1.16472 (Simulation time: 1 hr 5 min 48 sec) 
Heartbeat CPU 3 instructions: 240000002 cycles: 179802079 heartbeat IPC: 1.16284 cumulative IPC: 1.16468 (Simulation time: 1 hr 5 min 48 sec) 
Heartbeat CPU 2 instructions: 240000002 cycles: 179807995 heartbeat IPC: 1.16274 cumulative IPC: 1.16463 (Simulation time: 1 hr 5 min 48 sec) 
*** Reached end of trace for Core: 0 Repeating trace: ./traces/ligra/ligra_Radii.com-lj.ungraph.gcc_6.3.0_O3.drop_750M.length_250M.champsimtrace.xz
Heartbeat CPU 0 instructions: 250000003 cycles: 188396035 heartbeat IPC: 1.162 cumulative IPC: 1.16462 (Simulation time: 1 hr 8 min 23 sec) 
Finished CPU 0 instructions: 200000003 cycles: 171729794 cumulative IPC: 1.16462 (Simulation time: 1 hr 8 min 23 sec) 
*** Reached end of trace for Core: 1 Repeating trace: ./traces/ligra/ligra_Radii.com-lj.ungraph.gcc_6.3.0_O3.drop_750M.length_250M.champsimtrace.xz
Heartbeat CPU 1 instructions: 250000003 cycles: 188402416 heartbeat IPC: 1.16198 cumulative IPC: 1.16458 (Simulation time: 1 hr 8 min 23 sec) 
Finished CPU 1 instructions: 200000002 cycles: 171736174 cumulative IPC: 1.16458 (Simulation time: 1 hr 8 min 23 sec) 
*** Reached end of trace for Core: 3 Repeating trace: ./traces/ligra/ligra_Radii.com-lj.ungraph.gcc_6.3.0_O3.drop_750M.length_250M.champsimtrace.xz
Heartbeat CPU 3 instructions: 250000003 cycles: 188408787 heartbeat IPC: 1.16188 cumulative IPC: 1.16454 (Simulation time: 1 hr 8 min 23 sec) 
Finished CPU 3 instructions: 200000000 cycles: 171742106 cumulative IPC: 1.16454 (Simulation time: 1 hr 8 min 23 sec) 
*** Reached end of trace for Core: 2 Repeating trace: ./traces/ligra/ligra_Radii.com-lj.ungraph.gcc_6.3.0_O3.drop_750M.length_250M.champsimtrace.xz
Heartbeat CPU 2 instructions: 250000003 cycles: 188413307 heartbeat IPC: 1.16207 cumulative IPC: 1.16451 (Simulation time: 1 hr 8 min 23 sec) 
Finished CPU 2 instructions: 200000001 cycles: 171747233 cumulative IPC: 1.1645 (Simulation time: 1 hr 8 min 23 sec) 

ChampSim completed all CPUs

Total Simulation Statistics (not including warmup)

CPU 0 cumulative IPC: 1.16462 instructions: 200021020 cycles: 171747233
ITLB TOTAL     ACCESS:   33214878  HIT:   33214878  MISS:          0  HIT %:        100  MISS %:          0   MPKI: 0
ITLB LOAD      ACCESS:          0  HIT:          0  MISS:          0  HIT %:       -nan  MISS %:       -nan   MPKI: 0
ITLB RFO       ACCESS:          0  HIT:          0  MISS:          0  HIT %:       -nan  MISS %:       -nan   MPKI: 0
ITLB PREFETCH  ACCESS:          0  HIT:          0  MISS:          0  HIT %:       -nan  MISS %:       -nan   MPKI: 0
ITLB WRITEBACK ACCESS:          0  HIT:          0  MISS:          0  HIT %:       -nan  MISS %:       -nan   MPKI: 0
DTLB TOTAL     ACCESS:   18109065  HIT:   18101752  MISS:       7313  HIT %:    99.9596  MISS %:  0.0403831   MPKI: 0.0365612
DTLB LOAD      ACCESS:          0  HIT:          0  MISS:          0  HIT %:       -nan  MISS %:       -nan   MPKI: 0
DTLB RFO       ACCESS:          0  HIT:          0  MISS:          0  HIT %:       -nan  MISS %:       -nan   MPKI: 0
DTLB PREFETCH  ACCESS:          0  HIT:          0  MISS:          0  HIT %:       -nan  MISS %:       -nan   MPKI: 0
DTLB WRITEBACK ACCESS:          0  HIT:          0  MISS:          0  HIT %:       -nan  MISS %:       -nan   MPKI: 0
STLB TOTAL     ACCESS:   11281308  HIT:   11273994  MISS:       7314  HIT %:    99.9352  MISS %:  0.0648329   MPKI: 0.0365662
STLB LOAD      ACCESS:          0  HIT:          0  MISS:          0  HIT %:       -nan  MISS %:       -nan   MPKI: 0
STLB RFO       ACCESS:          0  HIT:          0  MISS:          0  HIT %:       -nan  MISS %:       -nan   MPKI: 0
STLB PREFETCH  ACCESS:          0  HIT:          0  MISS:          0  HIT %:       -nan  MISS %:       -nan   MPKI: 0
STLB WRITEBACK ACCESS:          0  HIT:          0  MISS:          0  HIT %:       -nan  MISS %:       -nan   MPKI: 0
L1D TOTAL     ACCESS:   76840659  HIT:   76372649  MISS:     468010  HIT %:    99.3909  MISS %:   0.609066   MPKI: 2.3398
L1D LOAD      ACCESS:   14529598  HIT:   14522230  MISS:       7368  HIT %:    99.9493  MISS %:  0.0507103   MPKI: 0.0368361
L1D RFO       ACCESS:    4062095  HIT:    4062095  MISS:          0  HIT %:        100  MISS %:          0   MPKI: 0
L1D PREFETCH  ACCESS:   58248966  HIT:   57788324  MISS:     460642  HIT %:    99.2092  MISS %:   0.790816   MPKI: 2.30297
L1D WRITEBACK ACCESS:          0  HIT:          0  MISS:          0  HIT %:       -nan  MISS %:       -nan   MPKI: 0
L1I TOTAL     ACCESS:   33214878  HIT:   33214878  MISS:          0  HIT %:        100  MISS %:          0   MPKI: 0
L1I LOAD      ACCESS:   33214878  HIT:   33214878  MISS:          0  HIT %:        100  MISS %:          0   MPKI: 0
L1I RFO       ACCESS:          0  HIT:          0  MISS:          0  HIT %:       -nan  MISS %:       -nan   MPKI: 0
L1I PREFETCH  ACCESS:          0  HIT:          0  MISS:          0  HIT %:       -nan  MISS %:       -nan   MPKI: 0
L1I WRITEBACK ACCESS:          0  HIT:          0  MISS:          0  HIT %:       -nan  MISS %:       -nan   MPKI: 0
L2C TOTAL     ACCESS:    3086629  HIT:    2414085  MISS:     672544  HIT %:    78.2111  MISS %:    21.7889   MPKI: 3.36237
L2C LOAD      ACCESS:       3337  HIT:          0  MISS:       3337  HIT %:          0  MISS %:        100   MPKI: 0.0166832
L2C RFO       ACCESS:          0  HIT:          0  MISS:          0  HIT %:       -nan  MISS %:       -nan   MPKI: 0
L2C PREFETCH  ACCESS:    1561679  HIT:    1097006  MISS:     464673  HIT %:    70.2453  MISS %:    29.7547   MPKI: 2.32312
L2C WRITEBACK ACCESS:     468010  HIT:     264406  MISS:     203604  HIT %:    56.4958  MISS %:    43.5042   MPKI: 1.01791
PSCL5 TOTAL     ACCESS:    1053603  HIT:    1053603  MISS:          0  HIT %:        100  MISS %:          0   MPKI: 0
PSCL5 LOAD      ACCESS:          0  HIT:          0  MISS:          0  HIT %:       -nan  MISS %:       -nan   MPKI: 0
PSCL5 RFO       ACCESS:          0  HIT:          0  MISS:          0  HIT %:       -nan  MISS %:       -nan   MPKI: 0
PSCL5 PREFETCH  ACCESS:          0  HIT:          0  MISS:          0  HIT %:       -nan  MISS %:       -nan   MPKI: 0
PSCL5 WRITEBACK ACCESS:          0  HIT:          0  MISS:          0  HIT %:       -nan  MISS %:       -nan   MPKI: 0
PSCL4 TOTAL     ACCESS:    1053603  HIT:    1053603  MISS:          0  HIT %:        100  MISS %:          0   MPKI: 0
PSCL4 LOAD      ACCESS:          0  HIT:          0  MISS:          0  HIT %:       -nan  MISS %:       -nan   MPKI: 0
PSCL4 RFO       ACCESS:          0  HIT:          0  MISS:          0  HIT %:       -nan  MISS %:       -nan   MPKI: 0
PSCL4 PREFETCH  ACCESS:          0  HIT:          0  MISS:          0  HIT %:       -nan  MISS %:       -nan   MPKI: 0
PSCL4 WRITEBACK ACCESS:          0  HIT:          0  MISS:          0  HIT %:       -nan  MISS %:       -nan   MPKI: 0
PSCL3 TOTAL     ACCESS:    1053603  HIT:    1053603  MISS:          0  HIT %:        100  MISS %:          0   MPKI: 0
PSCL3 LOAD      ACCESS:          0  HIT:          0  MISS:          0  HIT %:       -nan  MISS %:       -nan   MPKI: 0
PSCL3 RFO       ACCESS:          0  HIT:          0  MISS:          0  HIT %:       -nan  MISS %:       -nan   MPKI: 0
PSCL3 PREFETCH  ACCESS:          0  HIT:          0  MISS:          0  HIT %:       -nan  MISS %:       -nan   MPKI: 0
PSCL3 WRITEBACK ACCESS:          0  HIT:          0  MISS:          0  HIT %:       -nan  MISS %:       -nan   MPKI: 0
PSCL2 TOTAL     ACCESS:    1051516  HIT:    1051501  MISS:         15  HIT %:    99.9986  MISS %: 0.00142651   MPKI: 7.49921e-05
PSCL2 LOAD      ACCESS:          0  HIT:          0  MISS:          0  HIT %:       -nan  MISS %:       -nan   MPKI: 0
PSCL2 RFO       ACCESS:          0  HIT:          0  MISS:          0  HIT %:       -nan  MISS %:       -nan   MPKI: 0
PSCL2 PREFETCH  ACCESS:          0  HIT:          0  MISS:          0  HIT %:       -nan  MISS %:       -nan   MPKI: 0
PSCL2 WRITEBACK ACCESS:          0  HIT:          0  MISS:          0  HIT %:       -nan  MISS %:       -nan   MPKI: 0
LLC TOTAL     ACCESS:     936917  HIT:     421118  MISS:     515799  HIT %:    44.9472  MISS %:    55.0528   MPKI: 2.57872
LLC LOAD      ACCESS:       3337  HIT:          0  MISS:       3337  HIT %:          0  MISS %:        100   MPKI: 0.0166832
LLC RFO       ACCESS:          0  HIT:          0  MISS:          0  HIT %:       -nan  MISS %:       -nan   MPKI: 0
LLC PREFETCH  ACCESS:     464673  HIT:          0  MISS:     464673  HIT %:          0  MISS %:        100   MPKI: 2.32312
LLC WRITEBACK ACCESS:     467977  HIT:     421115  MISS:      46862  HIT %:    89.9863  MISS %:    10.0137   MPKI: 0.234285

RAW hits: 0
Loads Generated: 29951762
Loads sent to L1D: 29951761
Stores Generated: 4062096
Stores sent to L1D: 4062095

CPU 1 cumulative IPC: 1.16458 instructions: 200013499 cycles: 171747233
ITLB TOTAL     ACCESS:   33213669  HIT:   33213669  MISS:          0  HIT %:        100  MISS %:          0   MPKI: 0
ITLB LOAD      ACCESS:          0  HIT:          0  MISS:          0  HIT %:       -nan  MISS %:       -nan   MPKI: 0
ITLB RFO       ACCESS:          0  HIT:          0  MISS:          0  HIT %:       -nan  MISS %:       -nan   MPKI: 0
ITLB PREFETCH  ACCESS:          0  HIT:          0  MISS:          0  HIT %:       -nan  MISS %:       -nan   MPKI: 0
ITLB WRITEBACK ACCESS:          0  HIT:          0  MISS:          0  HIT %:       -nan  MISS %:       -nan   MPKI: 0
DTLB TOTAL     ACCESS:   18108619  HIT:   18101306  MISS:       7313  HIT %:    99.9596  MISS %:  0.0403841   MPKI: 0.0365625
DTLB LOAD      ACCESS:          0  HIT:          0  MISS:          0  HIT %:       -nan  MISS %:       -nan   MPKI: 0
DTLB RFO       ACCESS:          0  HIT:          0  MISS:          0  HIT %:       -nan  MISS %:       -nan   MPKI: 0
DTLB PREFETCH  ACCESS:          0  HIT:          0  MISS:          0  HIT %:       -nan  MISS %:       -nan   MPKI: 0
DTLB WRITEBACK ACCESS:          0  HIT:          0  MISS:          0  HIT %:       -nan  MISS %:       -nan   MPKI: 0
STLB TOTAL     ACCESS:   11281540  HIT:   11274227  MISS:       7313  HIT %:    99.9352  MISS %:  0.0648227   MPKI: 0.0365625
STLB LOAD      ACCESS:          0  HIT:          0  MISS:          0  HIT %:       -nan  MISS %:       -nan   MPKI: 0
STLB RFO       ACCESS:          0  HIT:          0  MISS:          0  HIT %:       -nan  MISS %:       -nan   MPKI: 0
STLB PREFETCH  ACCESS:          0  HIT:          0  MISS:          0  HIT %:       -nan  MISS %:       -nan   MPKI: 0
STLB WRITEBACK ACCESS:          0  HIT:          0  MISS:          0  HIT %:       -nan  MISS %:       -nan   MPKI: 0
L1D TOTAL     ACCESS:   76843494  HIT:   76375505  MISS:     467989  HIT %:     99.391  MISS %:   0.609016   MPKI: 2.33979
L1D LOAD      ACCESS:   14529238  HIT:   14521853  MISS:       7385  HIT %:    99.9492  MISS %:  0.0508285   MPKI: 0.0369225
L1D RFO       ACCESS:    4061943  HIT:    4061943  MISS:          0  HIT %:        100  MISS %:          0   MPKI: 0
L1D PREFETCH  ACCESS:   58252313  HIT:   57791709  MISS:     460604  HIT %:    99.2093  MISS %:   0.790705   MPKI: 2.30286
L1D WRITEBACK ACCESS:          0  HIT:          0  MISS:          0  HIT %:       -nan  MISS %:       -nan   MPKI: 0
L1I TOTAL     ACCESS:   33213668  HIT:   33213668  MISS:          0  HIT %:        100  MISS %:          0   MPKI: 0
L1I LOAD      ACCESS:   33213668  HIT:   33213668  MISS:          0  HIT %:        100  MISS %:          0   MPKI: 0
L1I RFO       ACCESS:          0  HIT:          0  MISS:          0  HIT %:       -nan  MISS %:       -nan   MPKI: 0
L1I PREFETCH  ACCESS:          0  HIT:          0  MISS:          0  HIT %:       -nan  MISS %:       -nan   MPKI: 0
L1I WRITEBACK ACCESS:          0  HIT:          0  MISS:          0  HIT %:       -nan  MISS %:       -nan   MPKI: 0
L2C TOTAL     ACCESS:    3069775  HIT:    2392433  MISS:     677342  HIT %:    77.9351  MISS %:    22.0649   MPKI: 3.38648
L2C LOAD      ACCESS:       3336  HIT:          0  MISS:       3336  HIT %:          0  MISS %:        100   MPKI: 0.0166789
L2C RFO       ACCESS:          0  HIT:          0  MISS:          0  HIT %:       -nan  MISS %:       -nan   MPKI: 0
L2C PREFETCH  ACCESS:    1545108  HIT:    1080455  MISS:     464653  HIT %:    69.9275  MISS %:    30.0725   MPKI: 2.32311
L2C WRITEBACK ACCESS:     467989  HIT:     259566  MISS:     208423  HIT %:    55.4641  MISS %:    44.5359   MPKI: 1.04204
PSCL5 TOTAL     ACCESS:    1053342  HIT:    1053342  MISS:          0  HIT %:        100  MISS %:          0   MPKI: 0
PSCL5 LOAD      ACCESS:          0  HIT:          0  MISS:          0  HIT %:       -nan  MISS %:       -nan   MPKI: 0
PSCL5 RFO       ACCESS:          0  HIT:          0  MISS:          0  HIT %:       -nan  MISS %:       -nan   MPKI: 0
PSCL5 PREFETCH  ACCESS:          0  HIT:          0  MISS:          0  HIT %:       -nan  MISS %:       -nan   MPKI: 0
PSCL5 WRITEBACK ACCESS:          0  HIT:          0  MISS:          0  HIT %:       -nan  MISS %:       -nan   MPKI: 0
PSCL4 TOTAL     ACCESS:    1053342  HIT:    1053342  MISS:          0  HIT %:        100  MISS %:          0   MPKI: 0
PSCL4 LOAD      ACCESS:          0  HIT:          0  MISS:          0  HIT %:       -nan  MISS %:       -nan   MPKI: 0
PSCL4 RFO       ACCESS:          0  HIT:          0  MISS:          0  HIT %:       -nan  MISS %:       -nan   MPKI: 0
PSCL4 PREFETCH  ACCESS:          0  HIT:          0  MISS:          0  HIT %:       -nan  MISS %:       -nan   MPKI: 0
PSCL4 WRITEBACK ACCESS:          0  HIT:          0  MISS:          0  HIT %:       -nan  MISS %:       -nan   MPKI: 0
PSCL3 TOTAL     ACCESS:    1053342  HIT:    1053342  MISS:          0  HIT %:        100  MISS %:          0   MPKI: 0
PSCL3 LOAD      ACCESS:          0  HIT:          0  MISS:          0  HIT %:       -nan  MISS %:       -nan   MPKI: 0
PSCL3 RFO       ACCESS:          0  HIT:          0  MISS:          0  HIT %:       -nan  MISS %:       -nan   MPKI: 0
PSCL3 PREFETCH  ACCESS:          0  HIT:          0  MISS:          0  HIT %:       -nan  MISS %:       -nan   MPKI: 0
PSCL3 WRITEBACK ACCESS:          0  HIT:          0  MISS:          0  HIT %:       -nan  MISS %:       -nan   MPKI: 0
PSCL2 TOTAL     ACCESS:    1051258  HIT:    1051243  MISS:         15  HIT %:    99.9986  MISS %: 0.00142686   MPKI: 7.49949e-05
PSCL2 LOAD      ACCESS:          0  HIT:          0  MISS:          0  HIT %:       -nan  MISS %:       -nan   MPKI: 0
PSCL2 RFO       ACCESS:          0  HIT:          0  MISS:          0  HIT %:       -nan  MISS %:       -nan   MPKI: 0
PSCL2 PREFETCH  ACCESS:          0  HIT:          0  MISS:          0  HIT %:       -nan  MISS %:       -nan   MPKI: 0
PSCL2 WRITEBACK ACCESS:          0  HIT:          0  MISS:          0  HIT %:       -nan  MISS %:       -nan   MPKI: 0
LLC TOTAL     ACCESS:     936904  HIT:     421181  MISS:     515723  HIT %:    44.9546  MISS %:    55.0454   MPKI: 2.57844
LLC LOAD      ACCESS:       3336  HIT:          0  MISS:       3336  HIT %:          0  MISS %:        100   MPKI: 0.0166789
LLC RFO       ACCESS:          0  HIT:          0  MISS:          0  HIT %:       -nan  MISS %:       -nan   MPKI: 0
LLC PREFETCH  ACCESS:     464653  HIT:          0  MISS:     464653  HIT %:          0  MISS %:        100   MPKI: 2.32311
LLC WRITEBACK ACCESS:     467985  HIT:     421174  MISS:      46811  HIT %:    89.9973  MISS %:    10.0027   MPKI: 0.234039

RAW hits: 0
Loads Generated: 29950631
Loads sent to L1D: 29950630
Stores Generated: 4061943
Stores sent to L1D: 4061943

CPU 2 cumulative IPC: 1.1645 instructions: 200000001 cycles: 171747233
ITLB TOTAL     ACCESS:   33211515  HIT:   33211515  MISS:          0  HIT %:        100  MISS %:          0   MPKI: 0
ITLB LOAD      ACCESS:          0  HIT:          0  MISS:          0  HIT %:       -nan  MISS %:       -nan   MPKI: 0
ITLB RFO       ACCESS:          0  HIT:          0  MISS:          0  HIT %:       -nan  MISS %:       -nan   MPKI: 0
ITLB PREFETCH  ACCESS:          0  HIT:          0  MISS:          0  HIT %:       -nan  MISS %:       -nan   MPKI: 0
ITLB WRITEBACK ACCESS:          0  HIT:          0  MISS:          0  HIT %:       -nan  MISS %:       -nan   MPKI: 0
DTLB TOTAL     ACCESS:   18108570  HIT:   18101257  MISS:       7313  HIT %:    99.9596  MISS %:  0.0403842   MPKI: 0.036565
DTLB LOAD      ACCESS:          0  HIT:          0  MISS:          0  HIT %:       -nan  MISS %:       -nan   MPKI: 0
DTLB RFO       ACCESS:          0  HIT:          0  MISS:          0  HIT %:       -nan  MISS %:       -nan   MPKI: 0
DTLB PREFETCH  ACCESS:          0  HIT:          0  MISS:          0  HIT %:       -nan  MISS %:       -nan   MPKI: 0
DTLB WRITEBACK ACCESS:          0  HIT:          0  MISS:          0  HIT %:       -nan  MISS %:       -nan   MPKI: 0
STLB TOTAL     ACCESS:   11281728  HIT:   11274415  MISS:       7313  HIT %:    99.9352  MISS %:  0.0648216   MPKI: 0.036565
STLB LOAD      ACCESS:          0  HIT:          0  MISS:          0  HIT %:       -nan  MISS %:       -nan   MPKI: 0
STLB RFO       ACCESS:          0  HIT:          0  MISS:          0  HIT %:       -nan  MISS %:       -nan   MPKI: 0
STLB PREFETCH  ACCESS:          0  HIT:          0  MISS:          0  HIT %:       -nan  MISS %:       -nan   MPKI: 0
STLB WRITEBACK ACCESS:          0  HIT:          0  MISS:          0  HIT %:       -nan  MISS %:       -nan   MPKI: 0
L1D TOTAL     ACCESS:   76846446  HIT:   76378492  MISS:     467954  HIT %:    99.3911  MISS %:   0.608947   MPKI: 2.33977
L1D LOAD      ACCESS:   14529213  HIT:   14521825  MISS:       7388  HIT %:    99.9492  MISS %:  0.0508493   MPKI: 0.03694
L1D RFO       ACCESS:    4061664  HIT:    4061664  MISS:          0  HIT %:        100  MISS %:          0   MPKI: 0
L1D PREFETCH  ACCESS:   58255569  HIT:   57795003  MISS:     460566  HIT %:    99.2094  MISS %:   0.790596   MPKI: 2.30283
L1D WRITEBACK ACCESS:          0  HIT:          0  MISS:          0  HIT %:       -nan  MISS %:       -nan   MPKI: 0
L1I TOTAL     ACCESS:   33211515  HIT:   33211515  MISS:          0  HIT %:        100  MISS %:          0   MPKI: 0
L1I LOAD      ACCESS:   33211515  HIT:   33211515  MISS:          0  HIT %:        100  MISS %:          0   MPKI: 0
L1I RFO       ACCESS:          0  HIT:          0  MISS:          0  HIT %:       -nan  MISS %:       -nan   MPKI: 0
L1I PREFETCH  ACCESS:          0  HIT:          0  MISS:          0  HIT %:       -nan  MISS %:       -nan   MPKI: 0
L1I WRITEBACK ACCESS:          0  HIT:          0  MISS:          0  HIT %:       -nan  MISS %:       -nan   MPKI: 0
L2C TOTAL     ACCESS:    3082328  HIT:    2404739  MISS:     677589  HIT %:     78.017  MISS %:     21.983   MPKI: 3.38794
L2C LOAD      ACCESS:       3338  HIT:          0  MISS:       3338  HIT %:          0  MISS %:        100   MPKI: 0.01669
L2C RFO       ACCESS:          0  HIT:          0  MISS:          0  HIT %:       -nan  MISS %:       -nan   MPKI: 0
L2C PREFETCH  ACCESS:    1557712  HIT:    1093105  MISS:     464607  HIT %:    70.1738  MISS %:    29.8262   MPKI: 2.32303
L2C WRITEBACK ACCESS:     467953  HIT:     259239  MISS:     208714  HIT %:    55.3985  MISS %:    44.6015   MPKI: 1.04357
PSCL5 TOTAL     ACCESS:    1053325  HIT:    1053325  MISS:          0  HIT %:        100  MISS %:          0   MPKI: 0
PSCL5 LOAD      ACCESS:          0  HIT:          0  MISS:          0  HIT %:       -nan  MISS %:       -nan   MPKI: 0
PSCL5 RFO       ACCESS:          0  HIT:          0  MISS:          0  HIT %:       -nan  MISS %:       -nan   MPKI: 0
PSCL5 PREFETCH  ACCESS:          0  HIT:          0  MISS:          0  HIT %:       -nan  MISS %:       -nan   MPKI: 0
PSCL5 WRITEBACK ACCESS:          0  HIT:          0  MISS:          0  HIT %:       -nan  MISS %:       -nan   MPKI: 0
PSCL4 TOTAL     ACCESS:    1053325  HIT:    1053325  MISS:          0  HIT %:        100  MISS %:          0   MPKI: 0
PSCL4 LOAD      ACCESS:          0  HIT:          0  MISS:          0  HIT %:       -nan  MISS %:       -nan   MPKI: 0
PSCL4 RFO       ACCESS:          0  HIT:          0  MISS:          0  HIT %:       -nan  MISS %:       -nan   MPKI: 0
PSCL4 PREFETCH  ACCESS:          0  HIT:          0  MISS:          0  HIT %:       -nan  MISS %:       -nan   MPKI: 0
PSCL4 WRITEBACK ACCESS:          0  HIT:          0  MISS:          0  HIT %:       -nan  MISS %:       -nan   MPKI: 0
PSCL3 TOTAL     ACCESS:    1053325  HIT:    1053325  MISS:          0  HIT %:        100  MISS %:          0   MPKI: 0
PSCL3 LOAD      ACCESS:          0  HIT:          0  MISS:          0  HIT %:       -nan  MISS %:       -nan   MPKI: 0
PSCL3 RFO       ACCESS:          0  HIT:          0  MISS:          0  HIT %:       -nan  MISS %:       -nan   MPKI: 0
PSCL3 PREFETCH  ACCESS:          0  HIT:          0  MISS:          0  HIT %:       -nan  MISS %:       -nan   MPKI: 0
PSCL3 WRITEBACK ACCESS:          0  HIT:          0  MISS:          0  HIT %:       -nan  MISS %:       -nan   MPKI: 0
PSCL2 TOTAL     ACCESS:    1051434  HIT:    1051419  MISS:         15  HIT %:    99.9986  MISS %: 0.00142662   MPKI: 7.5e-05
PSCL2 LOAD      ACCESS:          0  HIT:          0  MISS:          0  HIT %:       -nan  MISS %:       -nan   MPKI: 0
PSCL2 RFO       ACCESS:          0  HIT:          0  MISS:          0  HIT %:       -nan  MISS %:       -nan   MPKI: 0
PSCL2 PREFETCH  ACCESS:          0  HIT:          0  MISS:          0  HIT %:       -nan  MISS %:       -nan   MPKI: 0
PSCL2 WRITEBACK ACCESS:          0  HIT:          0  MISS:          0  HIT %:       -nan  MISS %:       -nan   MPKI: 0
LLC TOTAL     ACCESS:     936856  HIT:     423884  MISS:     512972  HIT %:    45.2454  MISS %:    54.7546   MPKI: 2.56486
LLC LOAD      ACCESS:       3338  HIT:          0  MISS:       3338  HIT %:          0  MISS %:        100   MPKI: 0.01669
LLC RFO       ACCESS:          0  HIT:          0  MISS:          0  HIT %:       -nan  MISS %:       -nan   MPKI: 0
LLC PREFETCH  ACCESS:     464609  HIT:          0  MISS:     464609  HIT %:          0  MISS %:        100   MPKI: 2.32304
LLC WRITEBACK ACCESS:     467979  HIT:     423884  MISS:      44095  HIT %:    90.5776  MISS %:    9.42243   MPKI: 0.220475

RAW hits: 0
Loads Generated: 29948631
Loads sent to L1D: 29948630
Stores Generated: 4061667
Stores sent to L1D: 4061664

CPU 3 cumulative IPC: 1.16454 instructions: 200005785 cycles: 171747233
ITLB TOTAL     ACCESS:   33212428  HIT:   33212428  MISS:          0  HIT %:        100  MISS %:          0   MPKI: 0
ITLB LOAD      ACCESS:          0  HIT:          0  MISS:          0  HIT %:       -nan  MISS %:       -nan   MPKI: 0
ITLB RFO       ACCESS:          0  HIT:          0  MISS:          0  HIT %:       -nan  MISS %:       -nan   MPKI: 0
ITLB PREFETCH  ACCESS:          0  HIT:          0  MISS:          0  HIT %:       -nan  MISS %:       -nan   MPKI: 0
ITLB WRITEBACK ACCESS:          0  HIT:          0  MISS:          0  HIT %:       -nan  MISS %:       -nan   MPKI: 0
DTLB TOTAL     ACCESS:   18109672  HIT:   18102359  MISS:       7313  HIT %:    99.9596  MISS %:  0.0403817   MPKI: 0.0365639
DTLB LOAD      ACCESS:          0  HIT:          0  MISS:          0  HIT %:       -nan  MISS %:       -nan   MPKI: 0
DTLB RFO       ACCESS:          0  HIT:          0  MISS:          0  HIT %:       -nan  MISS %:       -nan   MPKI: 0
DTLB PREFETCH  ACCESS:          0  HIT:          0  MISS:          0  HIT %:       -nan  MISS %:       -nan   MPKI: 0
DTLB WRITEBACK ACCESS:          0  HIT:          0  MISS:          0  HIT %:       -nan  MISS %:       -nan   MPKI: 0
STLB TOTAL     ACCESS:   11282309  HIT:   11274996  MISS:       7313  HIT %:    99.9352  MISS %:  0.0648183   MPKI: 0.0365639
STLB LOAD      ACCESS:          0  HIT:          0  MISS:          0  HIT %:       -nan  MISS %:       -nan   MPKI: 0
STLB RFO       ACCESS:          0  HIT:          0  MISS:          0  HIT %:       -nan  MISS %:       -nan   MPKI: 0
STLB PREFETCH  ACCESS:          0  HIT:          0  MISS:          0  HIT %:       -nan  MISS %:       -nan   MPKI: 0
STLB WRITEBACK ACCESS:          0  HIT:          0  MISS:          0  HIT %:       -nan  MISS %:       -nan   MPKI: 0
L1D TOTAL     ACCESS:   76862700  HIT:   76394728  MISS:     467972  HIT %:    99.3912  MISS %:   0.608841   MPKI: 2.33979
L1D LOAD      ACCESS:   14530159  HIT:   14522752  MISS:       7407  HIT %:     99.949  MISS %:  0.0509767   MPKI: 0.0370339
L1D RFO       ACCESS:    4061785  HIT:    4061785  MISS:          0  HIT %:        100  MISS %:          0   MPKI: 0
L1D PREFETCH  ACCESS:   58270756  HIT:   57810191  MISS:     460565  HIT %:    99.2096  MISS %:   0.790388   MPKI: 2.30276
L1D WRITEBACK ACCESS:          0  HIT:          0  MISS:          0  HIT %:       -nan  MISS %:       -nan   MPKI: 0
L1I TOTAL     ACCESS:   33212428  HIT:   33212428  MISS:          0  HIT %:        100  MISS %:          0   MPKI: 0
L1I LOAD      ACCESS:   33212428  HIT:   33212428  MISS:          0  HIT %:        100  MISS %:          0   MPKI: 0
L1I RFO       ACCESS:          0  HIT:          0  MISS:          0  HIT %:       -nan  MISS %:       -nan   MPKI: 0
L1I PREFETCH  ACCESS:          0  HIT:          0  MISS:          0  HIT %:       -nan  MISS %:       -nan   MPKI: 0
L1I WRITEBACK ACCESS:          0  HIT:          0  MISS:          0  HIT %:       -nan  MISS %:       -nan   MPKI: 0
L2C TOTAL     ACCESS:    3085664  HIT:    2409584  MISS:     676080  HIT %:    78.0896  MISS %:    21.9104   MPKI: 3.3803
L2C LOAD      ACCESS:       3338  HIT:          0  MISS:       3338  HIT %:          0  MISS %:        100   MPKI: 0.0166895
L2C RFO       ACCESS:          0  HIT:          0  MISS:          0  HIT %:       -nan  MISS %:       -nan   MPKI: 0
L2C PREFETCH  ACCESS:    1561356  HIT:    1096713  MISS:     464643  HIT %:    70.2411  MISS %:    29.7589   MPKI: 2.32315
L2C WRITEBACK ACCESS:     467972  HIT:     260803  MISS:     207169  HIT %:    55.7305  MISS %:    44.2695   MPKI: 1.03582
PSCL5 TOTAL     ACCESS:    1052998  HIT:    1052998  MISS:          0  HIT %:        100  MISS %:          0   MPKI: 0
PSCL5 LOAD      ACCESS:          0  HIT:          0  MISS:          0  HIT %:       -nan  MISS %:       -nan   MPKI: 0
PSCL5 RFO       ACCESS:          0  HIT:          0  MISS:          0  HIT %:       -nan  MISS %:       -nan   MPKI: 0
PSCL5 PREFETCH  ACCESS:          0  HIT:          0  MISS:          0  HIT %:       -nan  MISS %:       -nan   MPKI: 0
PSCL5 WRITEBACK ACCESS:          0  HIT:          0  MISS:          0  HIT %:       -nan  MISS %:       -nan   MPKI: 0
PSCL4 TOTAL     ACCESS:    1052998  HIT:    1052998  MISS:          0  HIT %:        100  MISS %:          0   MPKI: 0
PSCL4 LOAD      ACCESS:          0  HIT:          0  MISS:          0  HIT %:       -nan  MISS %:       -nan   MPKI: 0
PSCL4 RFO       ACCESS:          0  HIT:          0  MISS:          0  HIT %:       -nan  MISS %:       -nan   MPKI: 0
PSCL4 PREFETCH  ACCESS:          0  HIT:          0  MISS:          0  HIT %:       -nan  MISS %:       -nan   MPKI: 0
PSCL4 WRITEBACK ACCESS:          0  HIT:          0  MISS:          0  HIT %:       -nan  MISS %:       -nan   MPKI: 0
PSCL3 TOTAL     ACCESS:    1052998  HIT:    1052998  MISS:          0  HIT %:        100  MISS %:          0   MPKI: 0
PSCL3 LOAD      ACCESS:          0  HIT:          0  MISS:          0  HIT %:       -nan  MISS %:       -nan   MPKI: 0
PSCL3 RFO       ACCESS:          0  HIT:          0  MISS:          0  HIT %:       -nan  MISS %:       -nan   MPKI: 0
PSCL3 PREFETCH  ACCESS:          0  HIT:          0  MISS:          0  HIT %:       -nan  MISS %:       -nan   MPKI: 0
PSCL3 WRITEBACK ACCESS:          0  HIT:          0  MISS:          0  HIT %:       -nan  MISS %:       -nan   MPKI: 0
PSCL2 TOTAL     ACCESS:    1050963  HIT:    1050948  MISS:         15  HIT %:    99.9986  MISS %: 0.00142726   MPKI: 7.49978e-05
PSCL2 LOAD      ACCESS:          0  HIT:          0  MISS:          0  HIT %:       -nan  MISS %:       -nan   MPKI: 0
PSCL2 RFO       ACCESS:          0  HIT:          0  MISS:          0  HIT %:       -nan  MISS %:       -nan   MPKI: 0
PSCL2 PREFETCH  ACCESS:          0  HIT:          0  MISS:          0  HIT %:       -nan  MISS %:       -nan   MPKI: 0
PSCL2 WRITEBACK ACCESS:          0  HIT:          0  MISS:          0  HIT %:       -nan  MISS %:       -nan   MPKI: 0
LLC TOTAL     ACCESS:     936852  HIT:     421645  MISS:     515207  HIT %:    45.0066  MISS %:    54.9934   MPKI: 2.57596
LLC LOAD      ACCESS:       3338  HIT:          0  MISS:       3338  HIT %:          0  MISS %:        100   MPKI: 0.0166895
LLC RFO       ACCESS:          0  HIT:          0  MISS:          0  HIT %:       -nan  MISS %:       -nan   MPKI: 0
LLC PREFETCH  ACCESS:     464643  HIT:          0  MISS:     464643  HIT %:          0  MISS %:        100   MPKI: 2.32315
LLC WRITEBACK ACCESS:     467941  HIT:     421642  MISS:      46299  HIT %:    90.1058  MISS %:     9.8942   MPKI: 0.231488

RAW hits: 0
Loads Generated: 29949478
Loads sent to L1D: 29949477
Stores Generated: 4061785
Stores sent to L1D: 4061785

Region of Interest Statistics

CPU 0 cumulative IPC: 1.16462 instructions: 200000003 cycles: 171729794
ITLB TOTAL     ACCESS:   33211435  HIT:   33211435  MISS:          0  HIT %:        100  MISS %:          0   MPKI: 0
ITLB LOAD TRANSLATION ACCESS:   33211435  HIT:   33211435  MISS:          0  HIT %:        100  MISS %:          0   MPKI: 0
ITLB PREFETCH  REQUESTED:          0  ISSUED:          0  USEFUL:          0  USELESS:          0
ITLB USEFUL LOAD PREFETCHES:          0 PREFETCH ISSUED TO LOWER LEVEL:          0  ACCURACY: -nan
ITLB TIMELY PREFETCHES:          0 LATE PREFETCHES: 0 DROPPED PREFETCHES: 0
ITLB PREFETCHES SAME FILL-ORIGIN LEVEL: 0 DIFFERENT FILL-ORIGIN LEVEL: 0
ITLB AVERAGE MISS LATENCY: -nan cycles
ITLB RQ	ACCESS:   33214879	FORWARD:          0	MERGED:          0	TO_CACHE:   33214879

DTLB TOTAL     ACCESS:   18107179  HIT:   18099866  MISS:       7313  HIT %:    99.9596  MISS %:  0.0403873   MPKI: 0.036565
DTLB LOAD TRANSLATION ACCESS:   18107179  HIT:   18099866  MISS:       7313  HIT %:    99.9596  MISS %:  0.0403873   MPKI: 0.036565
DTLB PREFETCH  REQUESTED:          0  ISSUED:          0  USEFUL:          0  USELESS:          0
DTLB USEFUL LOAD PREFETCHES:          0 PREFETCH ISSUED TO LOWER LEVEL:          0  ACCURACY: -nan
DTLB TIMELY PREFETCHES:          0 LATE PREFETCHES: 0 DROPPED PREFETCHES: 0
DTLB PREFETCHES SAME FILL-ORIGIN LEVEL: 0 DIFFERENT FILL-ORIGIN LEVEL: 0
DTLB AVERAGE MISS LATENCY: 119.778 cycles
DTLB RQ	ACCESS:   18633321	FORWARD:          0	MERGED:     524256	TO_CACHE:   18109065

STLB TOTAL     ACCESS:   11279861  HIT:   11272548  MISS:       7313  HIT %:    99.9352  MISS %:  0.0648324   MPKI: 0.036565
STLB LOAD TRANSLATION ACCESS:       7313  HIT:          0  MISS:       7313  HIT %:          0  MISS %:        100   MPKI: 0.036565
STLB TRANSLATION FROM L1D PREFETCHER ACCESS:   11272548  HIT:   11272548  MISS:          0  HIT %:        100  MISS %:          0   MPKI: 0
STLB PREFETCH  REQUESTED:          0  ISSUED:          0  USEFUL:          1  USELESS:          0
STLB USEFUL LOAD PREFETCHES:          1 PREFETCH ISSUED TO LOWER LEVEL:          0  ACCURACY: inf
STLB TIMELY PREFETCHES:          1 LATE PREFETCHES: 1536 DROPPED PREFETCHES: 1044753
STLB PREFETCHES SAME FILL-ORIGIN LEVEL: 0 DIFFERENT FILL-ORIGIN LEVEL: 0
STLB AVERAGE MISS LATENCY: 108.462 cycles
STLB RQ	ACCESS:   66697639	FORWARD:          0	MERGED:   54302427	TO_CACHE:   12395212

STLB Hit, L1D data hit: 0
STLB Hit, L2C data hit: 0
STLB Hit, LLC data hit: 0
STLB Hit, LLC data miss: 0
STLB STLB hints to L2: 0
L1D TOTAL     ACCESS:   76832270  HIT:   76364325  MISS:     467945  HIT %:     99.391  MISS %:   0.609047   MPKI: 2.33972
L1D LOAD      ACCESS:   14528080  HIT:   14520712  MISS:       7368  HIT %:    99.9493  MISS %:  0.0507156   MPKI: 0.03684
L1D RFO       ACCESS:    4061664  HIT:    4061664  MISS:          0  HIT %:        100  MISS %:          0   MPKI: 0
L1D PREFETCH  ACCESS:   58242526  HIT:   57781949  MISS:     460577  HIT %:    99.2092  MISS %:   0.790792   MPKI: 2.30288
L1D PREFETCH  REQUESTED:  179213299  ISSUED:  179213251  USEFUL:     460629  USELESS:          0
L1D USEFUL LOAD PREFETCHES:     460629 PREFETCH ISSUED TO LOWER LEVEL:    2462183  ACCURACY: 18.7082
L1D TIMELY PREFETCHES:     460629 LATE PREFETCHES: 4031 DROPPED PREFETCHES: 2985519
L1D PREFETCHES SAME FILL-ORIGIN LEVEL: 464673 DIFFERENT FILL-ORIGIN LEVEL: 1997510
L1D AVERAGE MISS LATENCY: 183.355 cycles
L1D RQ	ACCESS:   29951761	FORWARD:          0	MERGED:   15380535	TO_CACHE:   14571226
L1D WQ	ACCESS:    4062095	FORWARD:          0	MERGED:          0	TO_CACHE:    4062095
L1D PQ	ACCESS:  112522925	FORWARD:          0	MERGED:   45832599	TO_CACHE:   66690326

L1D UNIQUE REGIONS ACCESSED: 0
L1D REGIONS CONFLICTS: 0
L1D Cross Page Prefetch Requests: 14875513
L1D Same Page Prefetch Requests: 156164630
L1D ROI Sum of L1D PQ occupancy: 870899880
L1D PREFETCHES PUSHED FROM L2C: 0
L1I TOTAL     ACCESS:   33211434  HIT:   33211434  MISS:          0  HIT %:        100  MISS %:          0   MPKI: 0
L1I LOAD      ACCESS:   33211434  HIT:   33211434  MISS:          0  HIT %:        100  MISS %:          0   MPKI: 0
L1I PREFETCH  REQUESTED:          0  ISSUED:          0  USEFUL:          0  USELESS:          0
L1I USEFUL LOAD PREFETCHES:          0 PREFETCH ISSUED TO LOWER LEVEL:          0  ACCURACY: -nan
L1I TIMELY PREFETCHES:          0 LATE PREFETCHES: 0 DROPPED PREFETCHES: 0
L1I PREFETCHES SAME FILL-ORIGIN LEVEL: 0 DIFFERENT FILL-ORIGIN LEVEL: 0
L1I AVERAGE MISS LATENCY: -nan cycles
L1I RQ	ACCESS:   80327864	FORWARD:          0	MERGED:   47112985	TO_CACHE:   33214879

BTB TOTAL     ACCESS:   59897335  HIT:   59897334  MISS:          1  HIT %:        100  MISS %: 1.66952e-06   MPKI: 5e-06
BTB BRANCH_DIRECT_JUMP	ACCESS:          0  HIT:          0  MISS:          0
BTB BRANCH_INDIRECT	ACCESS:          0  HIT:          0  MISS:          0
BTB BRANCH_CONDITIONAL	ACCESS:   59897335  HIT:   59897334  MISS:          1
BTB BRANCH_DIRECT_CALL	ACCESS:          0  HIT:          0  MISS:          0
BTB BRANCH_INDIRECT_CALL	ACCESS:          0  HIT:          0  MISS:          0
BTB BRANCH_RETURN	ACCESS:          0  HIT:          0  MISS:          0
BTB BRANCH_OTHER ACCESS:          0  HIT:          0  MISS:          0

L2C TOTAL     ACCESS:    3086237  HIT:    2413786  MISS:     672451  HIT %:    78.2113  MISS %:    21.7887   MPKI: 3.36225
L2C LOAD      ACCESS:       3337  HIT:          0  MISS:       3337  HIT %:          0  MISS %:        100   MPKI: 0.016685
L2C DATA LOAD MPKI: 0.016685
L2C INSTRUCTION LOAD MPKI: 0
L2C PREFETCH  ACCESS:    1561354  HIT:    1096746  MISS:     464608  HIT %:    70.2433  MISS %:    29.7567   MPKI: 2.32304
L2C DATA PREFETCH MPKI: 2.32304
L2C INSTRUCTION PREFETCH MPKI: 0
L2C WRITEBACK ACCESS:     467944  HIT:     264368  MISS:     203576  HIT %:    56.4956  MISS %:    43.5044   MPKI: 1.01788
L2C LOAD TRANSLATION ACCESS:       7313  HIT:       7312  MISS:          1  HIT %:    99.9863  MISS %:  0.0136743   MPKI: 5e-06
L2C TRANSLATION FROM L1D PREFETCHER ACCESS:    1046289  HIT:    1045360  MISS:        929  HIT %:    99.9112  MISS %:    0.08879   MPKI: 0.004645
L2C PREFETCH  REQUESTED:          0  ISSUED:          0  USEFUL:        929  USELESS:     464189
L2C USEFUL LOAD PREFETCHES:        929 PREFETCH ISSUED TO LOWER LEVEL:     464673  ACCURACY: 0.199926
L2C TIMELY PREFETCHES:        929 LATE PREFETCHES: 0 DROPPED PREFETCHES: 0
L2C PREFETCHES SAME FILL-ORIGIN LEVEL: 94460 DIFFERENT FILL-ORIGIN LEVEL: 0
L2C AVERAGE MISS LATENCY: 149.322 cycles
L2C RQ	ACCESS:    1056940	FORWARD:          0	MERGED:          0	TO_CACHE:    1056940
L2C WQ	ACCESS:     468010	FORWARD:          0	MERGED:          0	TO_CACHE:     468010
L2C PQ	ACCESS:    2462183	FORWARD:          0	MERGED:        556	TO_CACHE:    2461627

L2C Instructions Evicting Data 0
L2C Translations Evicting Data 930
L2C Data Evicting Data 467218
L2C Instructions Evicting Instructions 0
L2C Translations Evicting Instructions 0
L2C Data Evicting Instructions 0
L2C Instructions Evicting Translations 0
L2C Translations Evicting Translations 0
L2C Data Evicting Translations 792
L2C Dense regions hint from L2: 0
PSCL5 TOTAL     ACCESS:    1053602  HIT:    1053602  MISS:          0  HIT %:        100  MISS %:          0   MPKI: 0
PSCL5 LOAD TRANSLATION ACCESS:       7313  HIT:       7313  MISS:          0  HIT %:        100  MISS %:          0   MPKI: 0
PSCL5 TRANSLATION FROM L1D PREFETCHER ACCESS:    1046289  HIT:    1046289  MISS:          0  HIT %:        100  MISS %:          0   MPKI: 0
PSCL5 PREFETCH  REQUESTED:          0  ISSUED:          0  USEFUL:          0  USELESS:          0
PSCL5 USEFUL LOAD PREFETCHES:          0 PREFETCH ISSUED TO LOWER LEVEL:          0  ACCURACY: -nan
PSCL5 TIMELY PREFETCHES:          0 LATE PREFETCHES: 0 DROPPED PREFETCHES: 0
PSCL5 PREFETCHES SAME FILL-ORIGIN LEVEL: 0 DIFFERENT FILL-ORIGIN LEVEL: 0

PSCL4 TOTAL     ACCESS:    1053602  HIT:    1053602  MISS:          0  HIT %:        100  MISS %:          0   MPKI: 0
PSCL4 LOAD TRANSLATION ACCESS:       7313  HIT:       7313  MISS:          0  HIT %:        100  MISS %:          0   MPKI: 0
PSCL4 TRANSLATION FROM L1D PREFETCHER ACCESS:    1046289  HIT:    1046289  MISS:          0  HIT %:        100  MISS %:          0   MPKI: 0
PSCL4 PREFETCH  REQUESTED:          0  ISSUED:          0  USEFUL:          0  USELESS:          0
PSCL4 USEFUL LOAD PREFETCHES:          0 PREFETCH ISSUED TO LOWER LEVEL:          0  ACCURACY: -nan
PSCL4 TIMELY PREFETCHES:          0 LATE PREFETCHES: 0 DROPPED PREFETCHES: 0
PSCL4 PREFETCHES SAME FILL-ORIGIN LEVEL: 0 DIFFERENT FILL-ORIGIN LEVEL: 0

PSCL3 TOTAL     ACCESS:    1053602  HIT:    1053602  MISS:          0  HIT %:        100  MISS %:          0   MPKI: 0
PSCL3 LOAD TRANSLATION ACCESS:       7313  HIT:       7313  MISS:          0  HIT %:        100  MISS %:          0   MPKI: 0
PSCL3 TRANSLATION FROM L1D PREFETCHER ACCESS:    1046289  HIT:    1046289  MISS:          0  HIT %:        100  MISS %:          0   MPKI: 0
PSCL3 PREFETCH  REQUESTED:          0  ISSUED:          0  USEFUL:          0  USELESS:          0
PSCL3 USEFUL LOAD PREFETCHES:          0 PREFETCH ISSUED TO LOWER LEVEL:          0  ACCURACY: -nan
PSCL3 TIMELY PREFETCHES:          0 LATE PREFETCHES: 0 DROPPED PREFETCHES: 0
PSCL3 PREFETCHES SAME FILL-ORIGIN LEVEL: 0 DIFFERENT FILL-ORIGIN LEVEL: 0

PSCL2 TOTAL     ACCESS:    1051515  HIT:    1051500  MISS:         15  HIT %:    99.9986  MISS %: 0.00142651   MPKI: 7.5e-05
PSCL2 LOAD TRANSLATION ACCESS:       7313  HIT:       7298  MISS:         15  HIT %:    99.7949  MISS %:   0.205114   MPKI: 7.5e-05
PSCL2 TRANSLATION FROM L1D PREFETCHER ACCESS:    1044202  HIT:    1044202  MISS:          0  HIT %:        100  MISS %:          0   MPKI: 0
PSCL2 PREFETCH  REQUESTED:          0  ISSUED:          0  USEFUL:          0  USELESS:          0
PSCL2 USEFUL LOAD PREFETCHES:          0 PREFETCH ISSUED TO LOWER LEVEL:          0  ACCURACY: -nan
PSCL2 TIMELY PREFETCHES:          0 LATE PREFETCHES: 0 DROPPED PREFETCHES: 0
PSCL2 PREFETCHES SAME FILL-ORIGIN LEVEL: 0 DIFFERENT FILL-ORIGIN LEVEL: 0

LLC TOTAL     ACCESS:     936800  HIT:     421061  MISS:     515739  HIT %:    44.9467  MISS %:    55.0533   MPKI: 2.57869
LLC LOAD      ACCESS:       3337  HIT:          0  MISS:       3337  HIT %:          0  MISS %:        100   MPKI: 0.016685
LLC PREFETCH  ACCESS:     464613  HIT:          0  MISS:     464613  HIT %:          0  MISS %:        100   MPKI: 2.32306
LLC WRITEBACK ACCESS:     467920  HIT:     421058  MISS:      46862  HIT %:     89.985  MISS %:     10.015   MPKI: 0.23431
LLC LOAD TRANSLATION ACCESS:          1  HIT:          0  MISS:          1  HIT %:          0  MISS %:        100   MPKI: 5e-06
LLC TRANSLATION FROM L1D PREFETCHER ACCESS:        929  HIT:          3  MISS:        926  HIT %:   0.322928  MISS %:    99.6771   MPKI: 0.00463
LLC PREFETCH  REQUESTED:          0  ISSUED:          0  USEFUL:          1  USELESS:    1865364
LLC USEFUL LOAD PREFETCHES:          1 PREFETCH ISSUED TO LOWER LEVEL:    1858584  ACCURACY: 5.38044e-05
LLC TIMELY PREFETCHES:          1 LATE PREFETCHES: 0 DROPPED PREFETCHES: 0
LLC PREFETCHES SAME FILL-ORIGIN LEVEL: 0 DIFFERENT FILL-ORIGIN LEVEL: 0
LLC AVERAGE MISS LATENCY: 668.052 cycles
LLC RQ	ACCESS:      17069	FORWARD:          0	MERGED:          0	TO_CACHE:      17069
LLC WQ	ACCESS:    1871883	FORWARD:          0	MERGED:          0	TO_CACHE:    1871883
LLC PQ	ACCESS:    1858586	FORWARD:          0	MERGED:          0	TO_CACHE:    1858586

LLC Dense regions hint to LLC: 0

RAW hits: 0
Loads Generated: 29948631
Loads sent to L1D: 29948630
Stores Generated: 4061667
Stores sent to L1D: 4061664
Major fault: 0 Minor fault: 9164
Allocated PAGES: 36656

CPU 1 cumulative IPC: 1.16458 instructions: 200000002 cycles: 171736174
ITLB TOTAL     ACCESS:   33211479  HIT:   33211479  MISS:          0  HIT %:        100  MISS %:          0   MPKI: 0
ITLB LOAD TRANSLATION ACCESS:   33211479  HIT:   33211479  MISS:          0  HIT %:        100  MISS %:          0   MPKI: 0
ITLB PREFETCH  REQUESTED:          0  ISSUED:          0  USEFUL:          0  USELESS:          0
ITLB USEFUL LOAD PREFETCHES:          0 PREFETCH ISSUED TO LOWER LEVEL:          0  ACCURACY: -nan
ITLB TIMELY PREFETCHES:          0 LATE PREFETCHES: 0 DROPPED PREFETCHES: 0
ITLB PREFETCHES SAME FILL-ORIGIN LEVEL: 0 DIFFERENT FILL-ORIGIN LEVEL: 0
ITLB AVERAGE MISS LATENCY: -nan cycles
ITLB RQ	ACCESS:   33213668	FORWARD:          0	MERGED:          0	TO_CACHE:   33213668

DTLB TOTAL     ACCESS:   18107410  HIT:   18100097  MISS:       7313  HIT %:    99.9596  MISS %:  0.0403868   MPKI: 0.036565
DTLB LOAD TRANSLATION ACCESS:   18107410  HIT:   18100097  MISS:       7313  HIT %:    99.9596  MISS %:  0.0403868   MPKI: 0.036565
DTLB PREFETCH  REQUESTED:          0  ISSUED:          0  USEFUL:          0  USELESS:          0
DTLB USEFUL LOAD PREFETCHES:          0 PREFETCH ISSUED TO LOWER LEVEL:          0  ACCURACY: -nan
DTLB TIMELY PREFETCHES:          0 LATE PREFETCHES: 0 DROPPED PREFETCHES: 0
DTLB PREFETCHES SAME FILL-ORIGIN LEVEL: 0 DIFFERENT FILL-ORIGIN LEVEL: 0
DTLB AVERAGE MISS LATENCY: 119.776 cycles
DTLB RQ	ACCESS:   18632939	FORWARD:          0	MERGED:     524320	TO_CACHE:   18108619

STLB TOTAL     ACCESS:   11280755  HIT:   11273442  MISS:       7313  HIT %:    99.9352  MISS %:  0.0648272   MPKI: 0.036565
STLB LOAD TRANSLATION ACCESS:       7313  HIT:          0  MISS:       7313  HIT %:          0  MISS %:        100   MPKI: 0.036565
STLB TRANSLATION FROM L1D PREFETCHER ACCESS:   11273442  HIT:   11273442  MISS:          0  HIT %:        100  MISS %:          0   MPKI: 0
STLB PREFETCH  REQUESTED:          0  ISSUED:          0  USEFUL:          0  USELESS:          0
STLB USEFUL LOAD PREFETCHES:          0 PREFETCH ISSUED TO LOWER LEVEL:          0  ACCURACY: -nan
STLB TIMELY PREFETCHES:          0 LATE PREFETCHES: 1536 DROPPED PREFETCHES: 1044493
STLB PREFETCHES SAME FILL-ORIGIN LEVEL: 0 DIFFERENT FILL-ORIGIN LEVEL: 0
STLB AVERAGE MISS LATENCY: 108.46 cycles
STLB RQ	ACCESS:   66691605	FORWARD:          0	MERGED:   54296450	TO_CACHE:   12395155

STLB Hit, L1D data hit: 0
STLB Hit, L2C data hit: 0
STLB Hit, LLC data hit: 0
STLB Hit, LLC data miss: 0
STLB STLB hints to L2: 0
L1D TOTAL     ACCESS:   76838673  HIT:   76370722  MISS:     467951  HIT %:     99.391  MISS %:   0.609005   MPKI: 2.33975
L1D LOAD      ACCESS:   14528268  HIT:   14520883  MISS:       7385  HIT %:    99.9492  MISS %:  0.0508319   MPKI: 0.036925
L1D RFO       ACCESS:    4061664  HIT:    4061664  MISS:          0  HIT %:        100  MISS %:          0   MPKI: 0
L1D PREFETCH  ACCESS:   58248741  HIT:   57788175  MISS:     460566  HIT %:    99.2093  MISS %:   0.790688   MPKI: 2.30283
L1D PREFETCH  REQUESTED:  179190177  ISSUED:  179190177  USEFUL:     460595  USELESS:          0
L1D USEFUL LOAD PREFETCHES:     460595 PREFETCH ISSUED TO LOWER LEVEL:    2443006  ACCURACY: 18.8536
L1D TIMELY PREFETCHES:     460595 LATE PREFETCHES: 4049 DROPPED PREFETCHES: 2984607
L1D PREFETCHES SAME FILL-ORIGIN LEVEL: 464654 DIFFERENT FILL-ORIGIN LEVEL: 1978352
L1D AVERAGE MISS LATENCY: 183.484 cycles
L1D RQ	ACCESS:   29950630	FORWARD:          0	MERGED:   15379634	TO_CACHE:   14570996
L1D WQ	ACCESS:    4061943	FORWARD:          0	MERGED:          0	TO_CACHE:    4061943
L1D PQ	ACCESS:  112505885	FORWARD:          0	MERGED:   45821593	TO_CACHE:   66684292

L1D UNIQUE REGIONS ACCESSED: 0
L1D REGIONS CONFLICTS: 0
L1D Cross Page Prefetch Requests: 14871728
L1D Same Page Prefetch Requests: 155499415
L1D ROI Sum of L1D PQ occupancy: 870718491
L1D PREFETCHES PUSHED FROM L2C: 0
L1I TOTAL     ACCESS:   33211479  HIT:   33211479  MISS:          0  HIT %:        100  MISS %:          0   MPKI: 0
L1I LOAD      ACCESS:   33211479  HIT:   33211479  MISS:          0  HIT %:        100  MISS %:          0   MPKI: 0
L1I PREFETCH  REQUESTED:          0  ISSUED:          0  USEFUL:          0  USELESS:          0
L1I USEFUL LOAD PREFETCHES:          0 PREFETCH ISSUED TO LOWER LEVEL:          0  ACCURACY: -nan
L1I TIMELY PREFETCHES:          0 LATE PREFETCHES: 0 DROPPED PREFETCHES: 0
L1I PREFETCHES SAME FILL-ORIGIN LEVEL: 0 DIFFERENT FILL-ORIGIN LEVEL: 0
L1I AVERAGE MISS LATENCY: -nan cycles
L1I RQ	ACCESS:   80324872	FORWARD:          0	MERGED:   47111204	TO_CACHE:   33213668

BTB TOTAL     ACCESS:   59897335  HIT:   59897334  MISS:          1  HIT %:        100  MISS %: 1.66952e-06   MPKI: 5e-06
BTB BRANCH_DIRECT_JUMP	ACCESS:          0  HIT:          0  MISS:          0
BTB BRANCH_INDIRECT	ACCESS:          0  HIT:          0  MISS:          0
BTB BRANCH_CONDITIONAL	ACCESS:   59897335  HIT:   59897334  MISS:          1
BTB BRANCH_DIRECT_CALL	ACCESS:          0  HIT:          0  MISS:          0
BTB BRANCH_INDIRECT_CALL	ACCESS:          0  HIT:          0  MISS:          0
BTB BRANCH_RETURN	ACCESS:          0  HIT:          0  MISS:          0
BTB BRANCH_OTHER ACCESS:          0  HIT:          0  MISS:          0

L2C TOTAL     ACCESS:    3068936  HIT:    2391645  MISS:     677291  HIT %:    77.9308  MISS %:    22.0692   MPKI: 3.38645
L2C LOAD      ACCESS:       3336  HIT:          0  MISS:       3336  HIT %:          0  MISS %:        100   MPKI: 0.01668
L2C DATA LOAD MPKI: 0.01668
L2C INSTRUCTION LOAD MPKI: 0
L2C PREFETCH  ACCESS:    1544308  HIT:    1079693  MISS:     464615  HIT %:    69.9144  MISS %:    30.0856   MPKI: 2.32307
L2C DATA PREFETCH MPKI: 2.32307
L2C INSTRUCTION PREFETCH MPKI: 0
L2C WRITEBACK ACCESS:     467950  HIT:     259540  MISS:     208410  HIT %:    55.4632  MISS %:    44.5368   MPKI: 1.04205
L2C LOAD TRANSLATION ACCESS:       7313  HIT:       7312  MISS:          1  HIT %:    99.9863  MISS %:  0.0136743   MPKI: 5e-06
L2C TRANSLATION FROM L1D PREFETCHER ACCESS:    1046029  HIT:    1045100  MISS:        929  HIT %:    99.9112  MISS %:  0.0888121   MPKI: 0.004645
L2C PREFETCH  REQUESTED:          0  ISSUED:          0  USEFUL:        929  USELESS:     464956
L2C USEFUL LOAD PREFETCHES:        929 PREFETCH ISSUED TO LOWER LEVEL:     464654  ACCURACY: 0.199934
L2C TIMELY PREFETCHES:        929 LATE PREFETCHES: 0 DROPPED PREFETCHES: 0
L2C PREFETCHES SAME FILL-ORIGIN LEVEL: 93587 DIFFERENT FILL-ORIGIN LEVEL: 0
L2C AVERAGE MISS LATENCY: 148.286 cycles
L2C RQ	ACCESS:    1056678	FORWARD:          0	MERGED:          0	TO_CACHE:    1056678
L2C WQ	ACCESS:     467989	FORWARD:          0	MERGED:          0	TO_CACHE:     467989
L2C PQ	ACCESS:    2443006	FORWARD:          0	MERGED:        511	TO_CACHE:    2442495

L2C Instructions Evicting Data 0
L2C Translations Evicting Data 930
L2C Data Evicting Data 467222
L2C Instructions Evicting Instructions 0
L2C Translations Evicting Instructions 0
L2C Data Evicting Instructions 0
L2C Instructions Evicting Translations 0
L2C Translations Evicting Translations 0
L2C Data Evicting Translations 767
L2C Dense regions hint from L2: 0
PSCL5 TOTAL     ACCESS:    1053342  HIT:    1053342  MISS:          0  HIT %:        100  MISS %:          0   MPKI: 0
PSCL5 LOAD TRANSLATION ACCESS:       7313  HIT:       7313  MISS:          0  HIT %:        100  MISS %:          0   MPKI: 0
PSCL5 TRANSLATION FROM L1D PREFETCHER ACCESS:    1046029  HIT:    1046029  MISS:          0  HIT %:        100  MISS %:          0   MPKI: 0
PSCL5 PREFETCH  REQUESTED:          0  ISSUED:          0  USEFUL:          0  USELESS:          0
PSCL5 USEFUL LOAD PREFETCHES:          0 PREFETCH ISSUED TO LOWER LEVEL:          0  ACCURACY: -nan
PSCL5 TIMELY PREFETCHES:          0 LATE PREFETCHES: 0 DROPPED PREFETCHES: 0
PSCL5 PREFETCHES SAME FILL-ORIGIN LEVEL: 0 DIFFERENT FILL-ORIGIN LEVEL: 0

PSCL4 TOTAL     ACCESS:    1053342  HIT:    1053342  MISS:          0  HIT %:        100  MISS %:          0   MPKI: 0
PSCL4 LOAD TRANSLATION ACCESS:       7313  HIT:       7313  MISS:          0  HIT %:        100  MISS %:          0   MPKI: 0
PSCL4 TRANSLATION FROM L1D PREFETCHER ACCESS:    1046029  HIT:    1046029  MISS:          0  HIT %:        100  MISS %:          0   MPKI: 0
PSCL4 PREFETCH  REQUESTED:          0  ISSUED:          0  USEFUL:          0  USELESS:          0
PSCL4 USEFUL LOAD PREFETCHES:          0 PREFETCH ISSUED TO LOWER LEVEL:          0  ACCURACY: -nan
PSCL4 TIMELY PREFETCHES:          0 LATE PREFETCHES: 0 DROPPED PREFETCHES: 0
PSCL4 PREFETCHES SAME FILL-ORIGIN LEVEL: 0 DIFFERENT FILL-ORIGIN LEVEL: 0

PSCL3 TOTAL     ACCESS:    1053342  HIT:    1053342  MISS:          0  HIT %:        100  MISS %:          0   MPKI: 0
PSCL3 LOAD TRANSLATION ACCESS:       7313  HIT:       7313  MISS:          0  HIT %:        100  MISS %:          0   MPKI: 0
PSCL3 TRANSLATION FROM L1D PREFETCHER ACCESS:    1046029  HIT:    1046029  MISS:          0  HIT %:        100  MISS %:          0   MPKI: 0
PSCL3 PREFETCH  REQUESTED:          0  ISSUED:          0  USEFUL:          0  USELESS:          0
PSCL3 USEFUL LOAD PREFETCHES:          0 PREFETCH ISSUED TO LOWER LEVEL:          0  ACCURACY: -nan
PSCL3 TIMELY PREFETCHES:          0 LATE PREFETCHES: 0 DROPPED PREFETCHES: 0
PSCL3 PREFETCHES SAME FILL-ORIGIN LEVEL: 0 DIFFERENT FILL-ORIGIN LEVEL: 0

PSCL2 TOTAL     ACCESS:    1051258  HIT:    1051243  MISS:         15  HIT %:    99.9986  MISS %: 0.00142686   MPKI: 7.5e-05
PSCL2 LOAD TRANSLATION ACCESS:       7313  HIT:       7298  MISS:         15  HIT %:    99.7949  MISS %:   0.205114   MPKI: 7.5e-05
PSCL2 TRANSLATION FROM L1D PREFETCHER ACCESS:    1043945  HIT:    1043945  MISS:          0  HIT %:        100  MISS %:          0   MPKI: 0
PSCL2 PREFETCH  REQUESTED:          0  ISSUED:          0  USEFUL:          0  USELESS:          0
PSCL2 USEFUL LOAD PREFETCHES:          0 PREFETCH ISSUED TO LOWER LEVEL:          0  ACCURACY: -nan
PSCL2 TIMELY PREFETCHES:          0 LATE PREFETCHES: 0 DROPPED PREFETCHES: 0
PSCL2 PREFETCHES SAME FILL-ORIGIN LEVEL: 0 DIFFERENT FILL-ORIGIN LEVEL: 0

LLC TOTAL     ACCESS:     936823  HIT:     421146  MISS:     515677  HIT %:    44.9547  MISS %:    55.0453   MPKI: 2.57838
LLC LOAD      ACCESS:       3336  HIT:          0  MISS:       3336  HIT %:          0  MISS %:        100   MPKI: 0.01668
LLC PREFETCH  ACCESS:     464619  HIT:          0  MISS:     464619  HIT %:          0  MISS %:        100   MPKI: 2.32309
LLC WRITEBACK ACCESS:     467938  HIT:     421139  MISS:      46799  HIT %:    89.9989  MISS %:    10.0011   MPKI: 0.233995
LLC LOAD TRANSLATION ACCESS:          1  HIT:          0  MISS:          1  HIT %:          0  MISS %:        100   MPKI: 5e-06
LLC TRANSLATION FROM L1D PREFETCHER ACCESS:        929  HIT:          7  MISS:        922  HIT %:   0.753498  MISS %:    99.2465   MPKI: 0.00461
LLC PREFETCH  REQUESTED:          0  ISSUED:          0  USEFUL:          1  USELESS:    1865364
LLC USEFUL LOAD PREFETCHES:          1 PREFETCH ISSUED TO LOWER LEVEL:    1858584  ACCURACY: 5.38044e-05
LLC TIMELY PREFETCHES:          1 LATE PREFETCHES: 0 DROPPED PREFETCHES: 0
LLC PREFETCHES SAME FILL-ORIGIN LEVEL: 0 DIFFERENT FILL-ORIGIN LEVEL: 0
LLC AVERAGE MISS LATENCY: 668.132 cycles
LLC RQ	ACCESS:      17069	FORWARD:          0	MERGED:          0	TO_CACHE:      17069
LLC WQ	ACCESS:    1871883	FORWARD:          0	MERGED:          0	TO_CACHE:    1871883
LLC PQ	ACCESS:    1858586	FORWARD:          0	MERGED:          0	TO_CACHE:    1858586

LLC Dense regions hint to LLC: 0

RAW hits: 0
Loads Generated: 29948631
Loads sent to L1D: 29948630
Stores Generated: 4061667
Stores sent to L1D: 4061664
Major fault: 0 Minor fault: 9164
Allocated PAGES: 36656

CPU 2 cumulative IPC: 1.1645 instructions: 200000001 cycles: 171747233
ITLB TOTAL     ACCESS:   33211515  HIT:   33211515  MISS:          0  HIT %:        100  MISS %:          0   MPKI: 0
ITLB LOAD TRANSLATION ACCESS:   33211515  HIT:   33211515  MISS:          0  HIT %:        100  MISS %:          0   MPKI: 0
ITLB PREFETCH  REQUESTED:          0  ISSUED:          0  USEFUL:          0  USELESS:          0
ITLB USEFUL LOAD PREFETCHES:          0 PREFETCH ISSUED TO LOWER LEVEL:          0  ACCURACY: -nan
ITLB TIMELY PREFETCHES:          0 LATE PREFETCHES: 0 DROPPED PREFETCHES: 0
ITLB PREFETCHES SAME FILL-ORIGIN LEVEL: 0 DIFFERENT FILL-ORIGIN LEVEL: 0
ITLB AVERAGE MISS LATENCY: -nan cycles
ITLB RQ	ACCESS:   33211515	FORWARD:          0	MERGED:          0	TO_CACHE:   33211515

DTLB TOTAL     ACCESS:   18108570  HIT:   18101257  MISS:       7313  HIT %:    99.9596  MISS %:  0.0403842   MPKI: 0.036565
DTLB LOAD TRANSLATION ACCESS:   18108570  HIT:   18101257  MISS:       7313  HIT %:    99.9596  MISS %:  0.0403842   MPKI: 0.036565
DTLB PREFETCH  REQUESTED:          0  ISSUED:          0  USEFUL:          0  USELESS:          0
DTLB USEFUL LOAD PREFETCHES:          0 PREFETCH ISSUED TO LOWER LEVEL:          0  ACCURACY: -nan
DTLB TIMELY PREFETCHES:          0 LATE PREFETCHES: 0 DROPPED PREFETCHES: 0
DTLB PREFETCHES SAME FILL-ORIGIN LEVEL: 0 DIFFERENT FILL-ORIGIN LEVEL: 0
DTLB AVERAGE MISS LATENCY: 119.814 cycles
DTLB RQ	ACCESS:   18632603	FORWARD:          0	MERGED:     524033	TO_CACHE:   18108570

STLB TOTAL     ACCESS:   11281728  HIT:   11274415  MISS:       7313  HIT %:    99.9352  MISS %:  0.0648216   MPKI: 0.036565
STLB LOAD TRANSLATION ACCESS:       7313  HIT:          0  MISS:       7313  HIT %:          0  MISS %:        100   MPKI: 0.036565
STLB TRANSLATION FROM L1D PREFETCHER ACCESS:   11274415  HIT:   11274415  MISS:          0  HIT %:        100  MISS %:          0   MPKI: 0
STLB PREFETCH  REQUESTED:          0  ISSUED:          0  USEFUL:          0  USELESS:          0
STLB USEFUL LOAD PREFETCHES:          0 PREFETCH ISSUED TO LOWER LEVEL:          0  ACCURACY: -nan
STLB TIMELY PREFETCHES:          0 LATE PREFETCHES: 1535 DROPPED PREFETCHES: 1044477
STLB PREFETCHES SAME FILL-ORIGIN LEVEL: 0 DIFFERENT FILL-ORIGIN LEVEL: 0
STLB AVERAGE MISS LATENCY: 108.512 cycles
STLB RQ	ACCESS:   66693935	FORWARD:          0	MERGED:   54298596	TO_CACHE:   12395339

STLB Hit, L1D data hit: 0
STLB Hit, L2C data hit: 0
STLB Hit, LLC data hit: 0
STLB Hit, LLC data miss: 0
STLB STLB hints to L2: 0
L1D TOTAL     ACCESS:   76846446  HIT:   76378492  MISS:     467954  HIT %:    99.3911  MISS %:   0.608947   MPKI: 2.33977
L1D LOAD      ACCESS:   14529213  HIT:   14521825  MISS:       7388  HIT %:    99.9492  MISS %:  0.0508493   MPKI: 0.03694
L1D RFO       ACCESS:    4061664  HIT:    4061664  MISS:          0  HIT %:        100  MISS %:          0   MPKI: 0
L1D PREFETCH  ACCESS:   58255569  HIT:   57795003  MISS:     460566  HIT %:    99.2094  MISS %:   0.790596   MPKI: 2.30283
L1D PREFETCH  REQUESTED:  179197732  ISSUED:  179197732  USEFUL:     460560  USELESS:          0
L1D USEFUL LOAD PREFETCHES:     460560 PREFETCH ISSUED TO LOWER LEVEL:    2457405  ACCURACY: 18.7417
L1D TIMELY PREFETCHES:     460560 LATE PREFETCHES: 4050 DROPPED PREFETCHES: 2985196
L1D PREFETCHES SAME FILL-ORIGIN LEVEL: 464624 DIFFERENT FILL-ORIGIN LEVEL: 1992781
L1D AVERAGE MISS LATENCY: 182.835 cycles
L1D RQ	ACCESS:   29948630	FORWARD:          0	MERGED:   15377691	TO_CACHE:   14570939
L1D WQ	ACCESS:    4061664	FORWARD:          0	MERGED:          0	TO_CACHE:    4061664
L1D PQ	ACCESS:  112511110	FORWARD:          0	MERGED:   45824488	TO_CACHE:   66686622

L1D UNIQUE REGIONS ACCESSED: 0
L1D REGIONS CONFLICTS: 0
L1D Cross Page Prefetch Requests: 14870724
L1D Same Page Prefetch Requests: 155335877
L1D ROI Sum of L1D PQ occupancy: 870787595
L1D PREFETCHES PUSHED FROM L2C: 0
L1I TOTAL     ACCESS:   33211515  HIT:   33211515  MISS:          0  HIT %:        100  MISS %:          0   MPKI: 0
L1I LOAD      ACCESS:   33211515  HIT:   33211515  MISS:          0  HIT %:        100  MISS %:          0   MPKI: 0
L1I PREFETCH  REQUESTED:          0  ISSUED:          0  USEFUL:          0  USELESS:          0
L1I USEFUL LOAD PREFETCHES:          0 PREFETCH ISSUED TO LOWER LEVEL:          0  ACCURACY: -nan
L1I TIMELY PREFETCHES:          0 LATE PREFETCHES: 0 DROPPED PREFETCHES: 0
L1I PREFETCHES SAME FILL-ORIGIN LEVEL: 0 DIFFERENT FILL-ORIGIN LEVEL: 0
L1I AVERAGE MISS LATENCY: -nan cycles
L1I RQ	ACCESS:   80319668	FORWARD:          0	MERGED:   47108153	TO_CACHE:   33211515

BTB TOTAL     ACCESS:   59897334  HIT:   59897333  MISS:          1  HIT %:        100  MISS %: 1.66952e-06   MPKI: 5e-06
BTB BRANCH_DIRECT_JUMP	ACCESS:          0  HIT:          0  MISS:          0
BTB BRANCH_INDIRECT	ACCESS:          0  HIT:          0  MISS:          0
BTB BRANCH_CONDITIONAL	ACCESS:   59897334  HIT:   59897333  MISS:          1
BTB BRANCH_DIRECT_CALL	ACCESS:          0  HIT:          0  MISS:          0
BTB BRANCH_INDIRECT_CALL	ACCESS:          0  HIT:          0  MISS:          0
BTB BRANCH_RETURN	ACCESS:          0  HIT:          0  MISS:          0
BTB BRANCH_OTHER ACCESS:          0  HIT:          0  MISS:          0

L2C TOTAL     ACCESS:    3082328  HIT:    2404739  MISS:     677589  HIT %:     78.017  MISS %:     21.983   MPKI: 3.38794
L2C LOAD      ACCESS:       3338  HIT:          0  MISS:       3338  HIT %:          0  MISS %:        100   MPKI: 0.01669
L2C DATA LOAD MPKI: 0.01669
L2C INSTRUCTION LOAD MPKI: 0
L2C PREFETCH  ACCESS:    1557712  HIT:    1093105  MISS:     464607  HIT %:    70.1738  MISS %:    29.8262   MPKI: 2.32303
L2C DATA PREFETCH MPKI: 2.32303
L2C INSTRUCTION PREFETCH MPKI: 0
L2C WRITEBACK ACCESS:     467953  HIT:     259239  MISS:     208714  HIT %:    55.3985  MISS %:    44.6015   MPKI: 1.04357
L2C LOAD TRANSLATION ACCESS:       7313  HIT:       7312  MISS:          1  HIT %:    99.9863  MISS %:  0.0136743   MPKI: 5e-06
L2C TRANSLATION FROM L1D PREFETCHER ACCESS:    1046012  HIT:    1045083  MISS:        929  HIT %:    99.9112  MISS %:  0.0888135   MPKI: 0.004645
L2C PREFETCH  REQUESTED:          0  ISSUED:          0  USEFUL:        929  USELESS:     464822
L2C USEFUL LOAD PREFETCHES:        929 PREFETCH ISSUED TO LOWER LEVEL:     464615  ACCURACY: 0.19995
L2C TIMELY PREFETCHES:        929 LATE PREFETCHES: 0 DROPPED PREFETCHES: 0
L2C PREFETCHES SAME FILL-ORIGIN LEVEL: 93695 DIFFERENT FILL-ORIGIN LEVEL: 0
L2C AVERAGE MISS LATENCY: 147.913 cycles
L2C RQ	ACCESS:    1056663	FORWARD:          0	MERGED:          0	TO_CACHE:    1056663
L2C WQ	ACCESS:     467954	FORWARD:          0	MERGED:          0	TO_CACHE:     467954
L2C PQ	ACCESS:    2457405	FORWARD:          0	MERGED:        538	TO_CACHE:    2456867

L2C Instructions Evicting Data 0
L2C Translations Evicting Data 930
L2C Data Evicting Data 467184
L2C Instructions Evicting Instructions 0
L2C Translations Evicting Instructions 0
L2C Data Evicting Instructions 0
L2C Instructions Evicting Translations 0
L2C Translations Evicting Translations 0
L2C Data Evicting Translations 761
L2C Dense regions hint from L2: 0
PSCL5 TOTAL     ACCESS:    1053325  HIT:    1053325  MISS:          0  HIT %:        100  MISS %:          0   MPKI: 0
PSCL5 LOAD TRANSLATION ACCESS:       7313  HIT:       7313  MISS:          0  HIT %:        100  MISS %:          0   MPKI: 0
PSCL5 TRANSLATION FROM L1D PREFETCHER ACCESS:    1046012  HIT:    1046012  MISS:          0  HIT %:        100  MISS %:          0   MPKI: 0
PSCL5 PREFETCH  REQUESTED:          0  ISSUED:          0  USEFUL:          0  USELESS:          0
PSCL5 USEFUL LOAD PREFETCHES:          0 PREFETCH ISSUED TO LOWER LEVEL:          0  ACCURACY: -nan
PSCL5 TIMELY PREFETCHES:          0 LATE PREFETCHES: 0 DROPPED PREFETCHES: 0
PSCL5 PREFETCHES SAME FILL-ORIGIN LEVEL: 0 DIFFERENT FILL-ORIGIN LEVEL: 0

PSCL4 TOTAL     ACCESS:    1053325  HIT:    1053325  MISS:          0  HIT %:        100  MISS %:          0   MPKI: 0
PSCL4 LOAD TRANSLATION ACCESS:       7313  HIT:       7313  MISS:          0  HIT %:        100  MISS %:          0   MPKI: 0
PSCL4 TRANSLATION FROM L1D PREFETCHER ACCESS:    1046012  HIT:    1046012  MISS:          0  HIT %:        100  MISS %:          0   MPKI: 0
PSCL4 PREFETCH  REQUESTED:          0  ISSUED:          0  USEFUL:          0  USELESS:          0
PSCL4 USEFUL LOAD PREFETCHES:          0 PREFETCH ISSUED TO LOWER LEVEL:          0  ACCURACY: -nan
PSCL4 TIMELY PREFETCHES:          0 LATE PREFETCHES: 0 DROPPED PREFETCHES: 0
PSCL4 PREFETCHES SAME FILL-ORIGIN LEVEL: 0 DIFFERENT FILL-ORIGIN LEVEL: 0

PSCL3 TOTAL     ACCESS:    1053325  HIT:    1053325  MISS:          0  HIT %:        100  MISS %:          0   MPKI: 0
PSCL3 LOAD TRANSLATION ACCESS:       7313  HIT:       7313  MISS:          0  HIT %:        100  MISS %:          0   MPKI: 0
PSCL3 TRANSLATION FROM L1D PREFETCHER ACCESS:    1046012  HIT:    1046012  MISS:          0  HIT %:        100  MISS %:          0   MPKI: 0
PSCL3 PREFETCH  REQUESTED:          0  ISSUED:          0  USEFUL:          0  USELESS:          0
PSCL3 USEFUL LOAD PREFETCHES:          0 PREFETCH ISSUED TO LOWER LEVEL:          0  ACCURACY: -nan
PSCL3 TIMELY PREFETCHES:          0 LATE PREFETCHES: 0 DROPPED PREFETCHES: 0
PSCL3 PREFETCHES SAME FILL-ORIGIN LEVEL: 0 DIFFERENT FILL-ORIGIN LEVEL: 0

PSCL2 TOTAL     ACCESS:    1051434  HIT:    1051419  MISS:         15  HIT %:    99.9986  MISS %: 0.00142662   MPKI: 7.5e-05
PSCL2 LOAD TRANSLATION ACCESS:       7313  HIT:       7298  MISS:         15  HIT %:    99.7949  MISS %:   0.205114   MPKI: 7.5e-05
PSCL2 TRANSLATION FROM L1D PREFETCHER ACCESS:    1044121  HIT:    1044121  MISS:          0  HIT %:        100  MISS %:          0   MPKI: 0
PSCL2 PREFETCH  REQUESTED:          0  ISSUED:          0  USEFUL:          0  USELESS:          0
PSCL2 USEFUL LOAD PREFETCHES:          0 PREFETCH ISSUED TO LOWER LEVEL:          0  ACCURACY: -nan
PSCL2 TIMELY PREFETCHES:          0 LATE PREFETCHES: 0 DROPPED PREFETCHES: 0
PSCL2 PREFETCHES SAME FILL-ORIGIN LEVEL: 0 DIFFERENT FILL-ORIGIN LEVEL: 0

LLC TOTAL     ACCESS:     936856  HIT:     423884  MISS:     512972  HIT %:    45.2454  MISS %:    54.7546   MPKI: 2.56486
LLC LOAD      ACCESS:       3338  HIT:          0  MISS:       3338  HIT %:          0  MISS %:        100   MPKI: 0.01669
LLC PREFETCH  ACCESS:     464609  HIT:          0  MISS:     464609  HIT %:          0  MISS %:        100   MPKI: 2.32304
LLC WRITEBACK ACCESS:     467979  HIT:     423884  MISS:      44095  HIT %:    90.5776  MISS %:    9.42243   MPKI: 0.220475
LLC LOAD TRANSLATION ACCESS:          1  HIT:          0  MISS:          1  HIT %:          0  MISS %:        100   MPKI: 5e-06
LLC TRANSLATION FROM L1D PREFETCHER ACCESS:        929  HIT:          0  MISS:        929  HIT %:          0  MISS %:        100   MPKI: 0.004645
LLC PREFETCH  REQUESTED:          0  ISSUED:          0  USEFUL:          1  USELESS:    1865364
LLC USEFUL LOAD PREFETCHES:          1 PREFETCH ISSUED TO LOWER LEVEL:    1858584  ACCURACY: 5.38044e-05
LLC TIMELY PREFETCHES:          1 LATE PREFETCHES: 0 DROPPED PREFETCHES: 0
LLC PREFETCHES SAME FILL-ORIGIN LEVEL: 0 DIFFERENT FILL-ORIGIN LEVEL: 0
LLC AVERAGE MISS LATENCY: 671.656 cycles
LLC RQ	ACCESS:      17069	FORWARD:          0	MERGED:          0	TO_CACHE:      17069
LLC WQ	ACCESS:    1871883	FORWARD:          0	MERGED:          0	TO_CACHE:    1871883
LLC PQ	ACCESS:    1858586	FORWARD:          0	MERGED:          0	TO_CACHE:    1858586

LLC Dense regions hint to LLC: 0

RAW hits: 0
Loads Generated: 29948631
Loads sent to L1D: 29948630
Stores Generated: 4061667
Stores sent to L1D: 4061664
Major fault: 0 Minor fault: 9164
Allocated PAGES: 36656

CPU 3 cumulative IPC: 1.16454 instructions: 200000000 cycles: 171742106
ITLB TOTAL     ACCESS:   33211461  HIT:   33211461  MISS:          0  HIT %:        100  MISS %:          0   MPKI: 0
ITLB LOAD TRANSLATION ACCESS:   33211461  HIT:   33211461  MISS:          0  HIT %:        100  MISS %:          0   MPKI: 0
ITLB PREFETCH  REQUESTED:          0  ISSUED:          0  USEFUL:          0  USELESS:          0
ITLB USEFUL LOAD PREFETCHES:          0 PREFETCH ISSUED TO LOWER LEVEL:          0  ACCURACY: -nan
ITLB TIMELY PREFETCHES:          0 LATE PREFETCHES: 0 DROPPED PREFETCHES: 0
ITLB PREFETCHES SAME FILL-ORIGIN LEVEL: 0 DIFFERENT FILL-ORIGIN LEVEL: 0
ITLB AVERAGE MISS LATENCY: -nan cycles
ITLB RQ	ACCESS:   33212427	FORWARD:          0	MERGED:          0	TO_CACHE:   33212427

DTLB TOTAL     ACCESS:   18109167  HIT:   18101855  MISS:       7312  HIT %:    99.9596  MISS %:  0.0403773   MPKI: 0.03656
DTLB LOAD TRANSLATION ACCESS:   18109167  HIT:   18101855  MISS:       7312  HIT %:    99.9596  MISS %:  0.0403773   MPKI: 0.03656
DTLB PREFETCH  REQUESTED:          0  ISSUED:          0  USEFUL:          0  USELESS:          0
DTLB USEFUL LOAD PREFETCHES:          0 PREFETCH ISSUED TO LOWER LEVEL:          0  ACCURACY: -nan
DTLB TIMELY PREFETCHES:          0 LATE PREFETCHES: 0 DROPPED PREFETCHES: 0
DTLB PREFETCHES SAME FILL-ORIGIN LEVEL: 0 DIFFERENT FILL-ORIGIN LEVEL: 0
DTLB AVERAGE MISS LATENCY: 119.793 cycles
DTLB RQ	ACCESS:   18633722	FORWARD:          0	MERGED:     524050	TO_CACHE:   18109672

STLB TOTAL     ACCESS:   11281987  HIT:   11274675  MISS:       7312  HIT %:    99.9352  MISS %:  0.0648113   MPKI: 0.03656
STLB LOAD TRANSLATION ACCESS:       7312  HIT:          0  MISS:       7312  HIT %:          0  MISS %:        100   MPKI: 0.03656
STLB TRANSLATION FROM L1D PREFETCHER ACCESS:   11274675  HIT:   11274675  MISS:          0  HIT %:        100  MISS %:          0   MPKI: 0
STLB PREFETCH  REQUESTED:          0  ISSUED:          0  USEFUL:          0  USELESS:          0
STLB USEFUL LOAD PREFETCHES:          0 PREFETCH ISSUED TO LOWER LEVEL:          0  ACCURACY: -nan
STLB TIMELY PREFETCHES:          0 LATE PREFETCHES: 1535 DROPPED PREFETCHES: 1044150
STLB PREFETCHES SAME FILL-ORIGIN LEVEL: 0 DIFFERENT FILL-ORIGIN LEVEL: 0
STLB AVERAGE MISS LATENCY: 108.473 cycles
STLB RQ	ACCESS:   66696824	FORWARD:          0	MERGED:   54301288	TO_CACHE:   12395536

STLB Hit, L1D data hit: 0
STLB Hit, L2C data hit: 0
STLB Hit, LLC data hit: 0
STLB Hit, LLC data miss: 0
STLB STLB hints to L2: 0
L1D TOTAL     ACCESS:   76860954  HIT:   76393003  MISS:     467951  HIT %:    99.3912  MISS %:   0.608828   MPKI: 2.33975
L1D LOAD      ACCESS:   14529759  HIT:   14522353  MISS:       7406  HIT %:     99.949  MISS %:  0.0509713   MPKI: 0.03703
L1D RFO       ACCESS:    4061665  HIT:    4061665  MISS:          0  HIT %:        100  MISS %:          0   MPKI: 0
L1D PREFETCH  ACCESS:   58269530  HIT:   57808985  MISS:     460545  HIT %:    99.2096  MISS %:    0.79037   MPKI: 2.30273
L1D PREFETCH  REQUESTED:  179204269  ISSUED:  179204269  USEFUL:     460555  USELESS:          0
L1D USEFUL LOAD PREFETCHES:     460555 PREFETCH ISSUED TO LOWER LEVEL:    2455349  ACCURACY: 18.7572
L1D TIMELY PREFETCHES:     460555 LATE PREFETCHES: 4069 DROPPED PREFETCHES: 2984335
L1D PREFETCHES SAME FILL-ORIGIN LEVEL: 464634 DIFFERENT FILL-ORIGIN LEVEL: 1990715
L1D AVERAGE MISS LATENCY: 182.09 cycles
L1D RQ	ACCESS:   29949477	FORWARD:          0	MERGED:   15377540	TO_CACHE:   14571937
L1D WQ	ACCESS:    4061785	FORWARD:          0	MERGED:          0	TO_CACHE:    4061785
L1D PQ	ACCESS:  112514758	FORWARD:          0	MERGED:   45825247	TO_CACHE:   66689511

L1D UNIQUE REGIONS ACCESSED: 0
L1D REGIONS CONFLICTS: 0
L1D Cross Page Prefetch Requests: 14868858
L1D Same Page Prefetch Requests: 155356993
L1D ROI Sum of L1D PQ occupancy: 870819347
L1D PREFETCHES PUSHED FROM L2C: 0
L1I TOTAL     ACCESS:   33211461  HIT:   33211461  MISS:          0  HIT %:        100  MISS %:          0   MPKI: 0
L1I LOAD      ACCESS:   33211461  HIT:   33211461  MISS:          0  HIT %:        100  MISS %:          0   MPKI: 0
L1I PREFETCH  REQUESTED:          0  ISSUED:          0  USEFUL:          0  USELESS:          0
L1I USEFUL LOAD PREFETCHES:          0 PREFETCH ISSUED TO LOWER LEVEL:          0  ACCURACY: -nan
L1I TIMELY PREFETCHES:          0 LATE PREFETCHES: 0 DROPPED PREFETCHES: 0
L1I PREFETCHES SAME FILL-ORIGIN LEVEL: 0 DIFFERENT FILL-ORIGIN LEVEL: 0
L1I AVERAGE MISS LATENCY: -nan cycles
L1I RQ	ACCESS:   80321781	FORWARD:          0	MERGED:   47109354	TO_CACHE:   33212427

BTB TOTAL     ACCESS:   59897224  HIT:   59897222  MISS:          2  HIT %:        100  MISS %: 3.33905e-06   MPKI: 1e-05
BTB BRANCH_DIRECT_JUMP	ACCESS:          0  HIT:          0  MISS:          0
BTB BRANCH_INDIRECT	ACCESS:          0  HIT:          0  MISS:          0
BTB BRANCH_CONDITIONAL	ACCESS:   59897224  HIT:   59897222  MISS:          2
BTB BRANCH_DIRECT_CALL	ACCESS:          0  HIT:          0  MISS:          0
BTB BRANCH_INDIRECT_CALL	ACCESS:          0  HIT:          0  MISS:          0
BTB BRANCH_RETURN	ACCESS:          0  HIT:          0  MISS:          0
BTB BRANCH_OTHER ACCESS:          0  HIT:          0  MISS:          0

L2C TOTAL     ACCESS:    3085124  HIT:    2409086  MISS:     676038  HIT %:    78.0872  MISS %:    21.9128   MPKI: 3.38019
L2C LOAD      ACCESS:       3337  HIT:          0  MISS:       3337  HIT %:          0  MISS %:        100   MPKI: 0.016685
L2C DATA LOAD MPKI: 0.016685
L2C INSTRUCTION LOAD MPKI: 0
L2C PREFETCH  ACCESS:    1560839  HIT:    1096227  MISS:     464612  HIT %:    70.2332  MISS %:    29.7668   MPKI: 2.32306
L2C DATA PREFETCH MPKI: 2.32306
L2C INSTRUCTION PREFETCH MPKI: 0
L2C WRITEBACK ACCESS:     467951  HIT:     260791  MISS:     207160  HIT %:    55.7304  MISS %:    44.2696   MPKI: 1.0358
L2C LOAD TRANSLATION ACCESS:       7312  HIT:       7312  MISS:          0  HIT %:        100  MISS %:          0   MPKI: 0
L2C TRANSLATION FROM L1D PREFETCHER ACCESS:    1045685  HIT:    1044756  MISS:        929  HIT %:    99.9112  MISS %:  0.0888413   MPKI: 0.004645
L2C PREFETCH  REQUESTED:          0  ISSUED:          0  USEFUL:        929  USELESS:     464849
L2C USEFUL LOAD PREFETCHES:        929 PREFETCH ISSUED TO LOWER LEVEL:     464644  ACCURACY: 0.199938
L2C TIMELY PREFETCHES:        929 LATE PREFETCHES: 0 DROPPED PREFETCHES: 0
L2C PREFETCHES SAME FILL-ORIGIN LEVEL: 93721 DIFFERENT FILL-ORIGIN LEVEL: 0
L2C AVERAGE MISS LATENCY: 147.537 cycles
L2C RQ	ACCESS:    1056336	FORWARD:          0	MERGED:          0	TO_CACHE:    1056336
L2C WQ	ACCESS:     467972	FORWARD:          0	MERGED:          0	TO_CACHE:     467972
L2C PQ	ACCESS:    2455349	FORWARD:          0	MERGED:        532	TO_CACHE:    2454817

L2C Instructions Evicting Data 0
L2C Translations Evicting Data 930
L2C Data Evicting Data 467202
L2C Instructions Evicting Instructions 0
L2C Translations Evicting Instructions 0
L2C Data Evicting Instructions 0
L2C Instructions Evicting Translations 0
L2C Translations Evicting Translations 0
L2C Data Evicting Translations 779
L2C Dense regions hint from L2: 0
PSCL5 TOTAL     ACCESS:    1052997  HIT:    1052997  MISS:          0  HIT %:        100  MISS %:          0   MPKI: 0
PSCL5 LOAD TRANSLATION ACCESS:       7312  HIT:       7312  MISS:          0  HIT %:        100  MISS %:          0   MPKI: 0
PSCL5 TRANSLATION FROM L1D PREFETCHER ACCESS:    1045685  HIT:    1045685  MISS:          0  HIT %:        100  MISS %:          0   MPKI: 0
PSCL5 PREFETCH  REQUESTED:          0  ISSUED:          0  USEFUL:          0  USELESS:          0
PSCL5 USEFUL LOAD PREFETCHES:          0 PREFETCH ISSUED TO LOWER LEVEL:          0  ACCURACY: -nan
PSCL5 TIMELY PREFETCHES:          0 LATE PREFETCHES: 0 DROPPED PREFETCHES: 0
PSCL5 PREFETCHES SAME FILL-ORIGIN LEVEL: 0 DIFFERENT FILL-ORIGIN LEVEL: 0

PSCL4 TOTAL     ACCESS:    1052997  HIT:    1052997  MISS:          0  HIT %:        100  MISS %:          0   MPKI: 0
PSCL4 LOAD TRANSLATION ACCESS:       7312  HIT:       7312  MISS:          0  HIT %:        100  MISS %:          0   MPKI: 0
PSCL4 TRANSLATION FROM L1D PREFETCHER ACCESS:    1045685  HIT:    1045685  MISS:          0  HIT %:        100  MISS %:          0   MPKI: 0
PSCL4 PREFETCH  REQUESTED:          0  ISSUED:          0  USEFUL:          0  USELESS:          0
PSCL4 USEFUL LOAD PREFETCHES:          0 PREFETCH ISSUED TO LOWER LEVEL:          0  ACCURACY: -nan
PSCL4 TIMELY PREFETCHES:          0 LATE PREFETCHES: 0 DROPPED PREFETCHES: 0
PSCL4 PREFETCHES SAME FILL-ORIGIN LEVEL: 0 DIFFERENT FILL-ORIGIN LEVEL: 0

PSCL3 TOTAL     ACCESS:    1052997  HIT:    1052997  MISS:          0  HIT %:        100  MISS %:          0   MPKI: 0
PSCL3 LOAD TRANSLATION ACCESS:       7312  HIT:       7312  MISS:          0  HIT %:        100  MISS %:          0   MPKI: 0
PSCL3 TRANSLATION FROM L1D PREFETCHER ACCESS:    1045685  HIT:    1045685  MISS:          0  HIT %:        100  MISS %:          0   MPKI: 0
PSCL3 PREFETCH  REQUESTED:          0  ISSUED:          0  USEFUL:          0  USELESS:          0
PSCL3 USEFUL LOAD PREFETCHES:          0 PREFETCH ISSUED TO LOWER LEVEL:          0  ACCURACY: -nan
PSCL3 TIMELY PREFETCHES:          0 LATE PREFETCHES: 0 DROPPED PREFETCHES: 0
PSCL3 PREFETCHES SAME FILL-ORIGIN LEVEL: 0 DIFFERENT FILL-ORIGIN LEVEL: 0

PSCL2 TOTAL     ACCESS:    1050962  HIT:    1050947  MISS:         15  HIT %:    99.9986  MISS %: 0.00142726   MPKI: 7.5e-05
PSCL2 LOAD TRANSLATION ACCESS:       7312  HIT:       7297  MISS:         15  HIT %:    99.7949  MISS %:   0.205142   MPKI: 7.5e-05
PSCL2 TRANSLATION FROM L1D PREFETCHER ACCESS:    1043650  HIT:    1043650  MISS:          0  HIT %:        100  MISS %:          0   MPKI: 0
PSCL2 PREFETCH  REQUESTED:          0  ISSUED:          0  USEFUL:          0  USELESS:          0
PSCL2 USEFUL LOAD PREFETCHES:          0 PREFETCH ISSUED TO LOWER LEVEL:          0  ACCURACY: -nan
PSCL2 TIMELY PREFETCHES:          0 LATE PREFETCHES: 0 DROPPED PREFETCHES: 0
PSCL2 PREFETCHES SAME FILL-ORIGIN LEVEL: 0 DIFFERENT FILL-ORIGIN LEVEL: 0

LLC TOTAL     ACCESS:     936789  HIT:     421614  MISS:     515175  HIT %:    45.0063  MISS %:    54.9937   MPKI: 2.57587
LLC LOAD      ACCESS:       3337  HIT:          0  MISS:       3337  HIT %:          0  MISS %:        100   MPKI: 0.016685
LLC PREFETCH  ACCESS:     464613  HIT:          0  MISS:     464613  HIT %:          0  MISS %:        100   MPKI: 2.32307
LLC WRITEBACK ACCESS:     467910  HIT:     421611  MISS:      46299  HIT %:    90.1051  MISS %:    9.89485   MPKI: 0.231495
LLC TRANSLATION FROM L1D PREFETCHER ACCESS:        929  HIT:          3  MISS:        926  HIT %:   0.322928  MISS %:    99.6771   MPKI: 0.00463
LLC PREFETCH  REQUESTED:          0  ISSUED:          0  USEFUL:          1  USELESS:    1865364
LLC USEFUL LOAD PREFETCHES:          1 PREFETCH ISSUED TO LOWER LEVEL:    1858584  ACCURACY: 5.38044e-05
LLC TIMELY PREFETCHES:          1 LATE PREFETCHES: 0 DROPPED PREFETCHES: 0
LLC PREFETCHES SAME FILL-ORIGIN LEVEL: 0 DIFFERENT FILL-ORIGIN LEVEL: 0
LLC AVERAGE MISS LATENCY: 668.783 cycles
LLC RQ	ACCESS:      17069	FORWARD:          0	MERGED:          0	TO_CACHE:      17069
LLC WQ	ACCESS:    1871883	FORWARD:          0	MERGED:          0	TO_CACHE:    1871883
LLC PQ	ACCESS:    1858586	FORWARD:          0	MERGED:          0	TO_CACHE:    1858586

LLC Dense regions hint to LLC: 0

RAW hits: 0
Loads Generated: 29948615
Loads sent to L1D: 29948613
Stores Generated: 4061664
Stores sent to L1D: 4061664
Major fault: 0 Minor fault: 9164
Allocated PAGES: 36656

DRAM Statistics
 CHANNEL 0
 RQ ROW_BUFFER_HIT:     380910  ROW_BUFFER_MISS:    1494726
 DBUS_CONGESTED:       3866
 WQ ROW_BUFFER_HIT:    1044024  ROW_BUFFER_MISS:     834693  FULL:      28485

 AVG_CONGESTED_CYCLE: 5
 All warmup complete: 5
Channel 0 Bank busy for read cycles: 0
Channel 0 Bank busy for write cycles: 0
Channel 0
Rank 0
0banks busy for read cycles: 2136090
0banks busy for write cycles: 16152
1banks busy for read cycles: 42489511
1banks busy for write cycles: 1893909
2banks busy for read cycles: 39293353
2banks busy for write cycles: 2172300
3banks busy for read cycles: 17389454
3banks busy for write cycles: 2299744
4banks busy for read cycles: 6862365
4banks busy for write cycles: 2414174
5banks busy for read cycles: 1778181
5banks busy for write cycles: 2686421
6banks busy for read cycles: 711749
6banks busy for write cycles: 3240763
7banks busy for read cycles: 708116
7banks busy for write cycles: 6107341
8banks busy for read cycles: 3258311
8banks busy for write cycles: 36289300

CPU 0 Branch Prediction Accuracy: 99.676% MPKI: 1.03614 Average ROB Occupancy at Mispredict: 28.1224
Branch types
NOT_BRANCH: 136055439 68.0206%
BRANCH_DIRECT_JUMP: 0 0%
BRANCH_INDIRECT: 0 0%
BRANCH_CONDITIONAL: 63965623 31.9795%
BRANCH_DIRECT_CALL: 0 0%
BRANCH_INDIRECT_CALL: 0 0%
BRANCH_RETURN: 0 0%
BRANCH_OTHER: 0 0%


CPU 1 Branch Prediction Accuracy: 99.676% MPKI: 1.03616 Average ROB Occupancy at Mispredict: 28.1079
Branch types
NOT_BRANCH: 136050306 68.0206%
BRANCH_DIRECT_JUMP: 0 0%
BRANCH_INDIRECT: 0 0%
BRANCH_CONDITIONAL: 63963209 31.9794%
BRANCH_DIRECT_CALL: 0 0%
BRANCH_INDIRECT_CALL: 0 0%
BRANCH_RETURN: 0 0%
BRANCH_OTHER: 0 0%


CPU 2 Branch Prediction Accuracy: 99.676% MPKI: 1.0362 Average ROB Occupancy at Mispredict: 28.1112
Branch types
NOT_BRANCH: 136041353 68.0207%
BRANCH_DIRECT_JUMP: 0 0%
BRANCH_INDIRECT: 0 0%
BRANCH_CONDITIONAL: 63959005 31.9795%
BRANCH_DIRECT_CALL: 0 0%
BRANCH_INDIRECT_CALL: 0 0%
BRANCH_RETURN: 0 0%
BRANCH_OTHER: 0 0%


CPU 3 Branch Prediction Accuracy: 99.676% MPKI: 1.03618 Average ROB Occupancy at Mispredict: 28.1119
Branch types
NOT_BRANCH: 136045060 68.0206%
BRANCH_DIRECT_JUMP: 0 0%
BRANCH_INDIRECT: 0 0%
BRANCH_CONDITIONAL: 63960744 31.9794%
BRANCH_DIRECT_CALL: 0 0%
BRANCH_INDIRECT_CALL: 0 0%
BRANCH_RETURN: 0 0%
BRANCH_OTHER: 0 0%

DRAM PAGES: 1048576
Allocated PAGES: 36656
