
*** ChampSim Multicore Out-of-Order Simulator ***

Warmup Instructions: 50000000
Simulation Instructions: 200000000
Number of CPUs: 4
LLC sets: 8192
LLC ways: 16
Off-chip DRAM Size: 4096 MB Channels: 1 Width: 64-bit Data Rate: 6400 MT/s
CPU 0 runs ./traces/spec/657.xz_s-2302B.champsimtrace.xz
.xz
CPU 1 runs ./traces/spec/657.xz_s-2302B.champsimtrace.xz
.xz
CPU 2 runs ./traces/spec/657.xz_s-2302B.champsimtrace.xz
.xz
CPU 3 runs ./traces/spec/657.xz_s-2302B.champsimtrace.xz
.xz
BTB has LRU replacement policy
ITLB has LRU replacement policy
DTLB has LRU replacement policy
STLB has LRU replacement policy
L1I has LRU replacement policy
History Sets: 8
History Ways: 16
BERTI Size: 16
BERTI Stride Size: 8
L1D has LRU replacement policy
Initialize SRRIP state for L2C
Initialize DRRIP state for LLC
BTB has LRU replacement policy
ITLB has LRU replacement policy
DTLB has LRU replacement policy
STLB has LRU replacement policy
L1I has LRU replacement policy
History Sets: 8
History Ways: 16
BERTI Size: 16
BERTI Stride Size: 8
L1D has LRU replacement policy
Initialize SRRIP state for L2C
Initialize DRRIP state for LLC
BTB has LRU replacement policy
ITLB has LRU replacement policy
DTLB has LRU replacement policy
STLB has LRU replacement policy
L1I has LRU replacement policy
History Sets: 8
History Ways: 16
BERTI Size: 16
BERTI Stride Size: 8
L1D has LRU replacement policy
Initialize SRRIP state for L2C
Initialize DRRIP state for LLC
BTB has LRU replacement policy
ITLB has LRU replacement policy
DTLB has LRU replacement policy
STLB has LRU replacement policy
L1I has LRU replacement policy
History Sets: 8
History Ways: 16
BERTI Size: 16
BERTI Stride Size: 8
L1D has LRU replacement policy
Initialize SRRIP state for L2C
Initialize DRRIP state for LLC
Heartbeat CPU 0 instructions: 10000003 cycles: 2791310 heartbeat IPC: 3.58255 cumulative IPC: 3.58255 (Simulation time: 0 hr 2 min 41 sec) 
Heartbeat CPU 1 instructions: 10000003 cycles: 2791447 heartbeat IPC: 3.58237 cumulative IPC: 3.58237 (Simulation time: 0 hr 2 min 41 sec) 
Heartbeat CPU 2 instructions: 10000003 cycles: 2791531 heartbeat IPC: 3.58226 cumulative IPC: 3.58226 (Simulation time: 0 hr 2 min 41 sec) 
Heartbeat CPU 3 instructions: 10000003 cycles: 2791588 heartbeat IPC: 3.58219 cumulative IPC: 3.58219 (Simulation time: 0 hr 2 min 41 sec) 
Heartbeat CPU 0 instructions: 20000002 cycles: 5586470 heartbeat IPC: 3.57761 cumulative IPC: 3.58008 (Simulation time: 0 hr 5 min 18 sec) 
Heartbeat CPU 1 instructions: 20000002 cycles: 5586597 heartbeat IPC: 3.57763 cumulative IPC: 3.58 (Simulation time: 0 hr 5 min 18 sec) 
Heartbeat CPU 2 instructions: 20000002 cycles: 5586782 heartbeat IPC: 3.5775 cumulative IPC: 3.57988 (Simulation time: 0 hr 5 min 18 sec) 
Heartbeat CPU 3 instructions: 20000002 cycles: 5586812 heartbeat IPC: 3.57753 cumulative IPC: 3.57986 (Simulation time: 0 hr 5 min 18 sec) 
Heartbeat CPU 0 instructions: 30000000 cycles: 8412550 heartbeat IPC: 3.53847 cumulative IPC: 3.5661 (Simulation time: 0 hr 8 min 4 sec) 
Heartbeat CPU 1 instructions: 30000000 cycles: 8412689 heartbeat IPC: 3.53845 cumulative IPC: 3.56604 (Simulation time: 0 hr 8 min 4 sec) 
Heartbeat CPU 2 instructions: 30000000 cycles: 8412871 heartbeat IPC: 3.53846 cumulative IPC: 3.56596 (Simulation time: 0 hr 8 min 4 sec) 
Heartbeat CPU 3 instructions: 30000000 cycles: 8412944 heartbeat IPC: 3.5384 cumulative IPC: 3.56593 (Simulation time: 0 hr 8 min 4 sec) 
Heartbeat CPU 0 instructions: 40000003 cycles: 11198958 heartbeat IPC: 3.58885 cumulative IPC: 3.57176 (Simulation time: 0 hr 10 min 54 sec) 
Heartbeat CPU 1 instructions: 40000003 cycles: 11199029 heartbeat IPC: 3.58894 cumulative IPC: 3.57174 (Simulation time: 0 hr 10 min 54 sec) 
Heartbeat CPU 2 instructions: 40000003 cycles: 11199266 heartbeat IPC: 3.58887 cumulative IPC: 3.57166 (Simulation time: 0 hr 10 min 54 sec) 
Heartbeat CPU 3 instructions: 40000003 cycles: 11199343 heartbeat IPC: 3.58886 cumulative IPC: 3.57164 (Simulation time: 0 hr 10 min 54 sec) 
Heartbeat CPU 0 instructions: 50000000 cycles: 13991154 heartbeat IPC: 3.58141 cumulative IPC: 3.57369 (Simulation time: 0 hr 13 min 31 sec) 
Heartbeat CPU 1 instructions: 50000000 cycles: 13991166 heartbeat IPC: 3.58149 cumulative IPC: 3.57368 (Simulation time: 0 hr 13 min 31 sec) 
Heartbeat CPU 2 instructions: 50000000 cycles: 13991419 heartbeat IPC: 3.58146 cumulative IPC: 3.57362 (Simulation time: 0 hr 13 min 31 sec) 
Heartbeat CPU 3 instructions: 50000000 cycles: 13991556 heartbeat IPC: 3.58139 cumulative IPC: 3.57358 (Simulation time: 0 hr 13 min 31 sec) 

Warmup complete CPU 0 instructions: 50001552 cycles: 13991557 (Simulation time: 0 hr 13 min 31 sec) 
Warmup complete CPU 1 instructions: 50001504 cycles: 13991557 (Simulation time: 0 hr 13 min 31 sec) 
Warmup complete CPU 2 instructions: 50000532 cycles: 13991557 (Simulation time: 0 hr 13 min 31 sec) 
Warmup complete CPU 3 instructions: 50000004 cycles: 13991557 (Simulation time: 0 hr 13 min 31 sec) 

Heartbeat CPU 0 instructions: 60000002 cycles: 27756757 heartbeat IPC: 0.726449 cumulative IPC: 0.726357 (Simulation time: 0 hr 16 min 37 sec) 
Heartbeat CPU 3 instructions: 60000002 cycles: 27756908 heartbeat IPC: 0.726462 cumulative IPC: 0.726462 (Simulation time: 0 hr 16 min 37 sec) 
Heartbeat CPU 2 instructions: 60000002 cycles: 27762766 heartbeat IPC: 0.726146 cumulative IPC: 0.726114 (Simulation time: 0 hr 16 min 37 sec) 
Heartbeat CPU 1 instructions: 60000002 cycles: 27772139 heartbeat IPC: 0.725638 cumulative IPC: 0.72555 (Simulation time: 0 hr 16 min 37 sec) 
Heartbeat CPU 3 instructions: 70000000 cycles: 40631936 heartbeat IPC: 0.776697 cumulative IPC: 0.75074 (Simulation time: 0 hr 19 min 45 sec) 
Heartbeat CPU 1 instructions: 70000000 cycles: 40633503 heartbeat IPC: 0.777522 cumulative IPC: 0.750639 (Simulation time: 0 hr 19 min 45 sec) 
Heartbeat CPU 2 instructions: 70000000 cycles: 40638193 heartbeat IPC: 0.776673 cumulative IPC: 0.750544 (Simulation time: 0 hr 19 min 45 sec) 
Heartbeat CPU 0 instructions: 70000000 cycles: 40643505 heartbeat IPC: 0.775991 cumulative IPC: 0.750356 (Simulation time: 0 hr 19 min 45 sec) 
Heartbeat CPU 3 instructions: 80000003 cycles: 53952186 heartbeat IPC: 0.750737 cumulative IPC: 0.750739 (Simulation time: 0 hr 23 min 3 sec) 
Heartbeat CPU 1 instructions: 80000003 cycles: 53961538 heartbeat IPC: 0.750298 cumulative IPC: 0.750526 (Simulation time: 0 hr 23 min 3 sec) 
Heartbeat CPU 0 instructions: 80000003 cycles: 53982659 heartbeat IPC: 0.749673 cumulative IPC: 0.750128 (Simulation time: 0 hr 23 min 4 sec) 
Heartbeat CPU 2 instructions: 80000003 cycles: 53989379 heartbeat IPC: 0.748997 cumulative IPC: 0.750028 (Simulation time: 0 hr 23 min 4 sec) 
Heartbeat CPU 3 instructions: 90000002 cycles: 67639725 heartbeat IPC: 0.730591 cumulative IPC: 0.745599 (Simulation time: 0 hr 26 min 16 sec) 
Heartbeat CPU 1 instructions: 90000002 cycles: 67655059 heartbeat IPC: 0.730272 cumulative IPC: 0.745358 (Simulation time: 0 hr 26 min 16 sec) 
Heartbeat CPU 0 instructions: 90000002 cycles: 67672968 heartbeat IPC: 0.730444 cumulative IPC: 0.745108 (Simulation time: 0 hr 26 min 16 sec) 
Heartbeat CPU 2 instructions: 90000002 cycles: 67680539 heartbeat IPC: 0.730398 cumulative IPC: 0.745022 (Simulation time: 0 hr 26 min 17 sec) 
Heartbeat CPU 3 instructions: 100000001 cycles: 80519103 heartbeat IPC: 0.776435 cumulative IPC: 0.751568 (Simulation time: 0 hr 29 min 17 sec) 
Heartbeat CPU 1 instructions: 100000001 cycles: 80557065 heartbeat IPC: 0.775073 cumulative IPC: 0.751117 (Simulation time: 0 hr 29 min 18 sec) 
Heartbeat CPU 0 instructions: 100000001 cycles: 80562181 heartbeat IPC: 0.775842 cumulative IPC: 0.751059 (Simulation time: 0 hr 29 min 18 sec) 
Heartbeat CPU 2 instructions: 100000001 cycles: 80580224 heartbeat IPC: 0.775213 cumulative IPC: 0.750871 (Simulation time: 0 hr 29 min 18 sec) 
Heartbeat CPU 3 instructions: 110000000 cycles: 94133995 heartbeat IPC: 0.73449 cumulative IPC: 0.748667 (Simulation time: 0 hr 32 min 27 sec) 
Heartbeat CPU 0 instructions: 110000000 cycles: 94180942 heartbeat IPC: 0.734281 cumulative IPC: 0.748209 (Simulation time: 0 hr 32 min 27 sec) 
Heartbeat CPU 1 instructions: 110000000 cycles: 94189125 heartbeat IPC: 0.733565 cumulative IPC: 0.748134 (Simulation time: 0 hr 32 min 27 sec) 
Heartbeat CPU 2 instructions: 110000000 cycles: 94205419 heartbeat IPC: 0.733934 cumulative IPC: 0.747994 (Simulation time: 0 hr 32 min 28 sec) 
Heartbeat CPU 3 instructions: 120000003 cycles: 108037647 heartbeat IPC: 0.719236 cumulative IPC: 0.744316 (Simulation time: 0 hr 35 min 27 sec) 
Heartbeat CPU 0 instructions: 120000003 cycles: 108069296 heartbeat IPC: 0.720028 cumulative IPC: 0.744049 (Simulation time: 0 hr 35 min 28 sec) 
Heartbeat CPU 2 instructions: 120000003 cycles: 108109910 heartbeat IPC: 0.719192 cumulative IPC: 0.743739 (Simulation time: 0 hr 35 min 28 sec) 
Heartbeat CPU 1 instructions: 120000003 cycles: 108110327 heartbeat IPC: 0.718329 cumulative IPC: 0.743725 (Simulation time: 0 hr 35 min 28 sec) 
Heartbeat CPU 3 instructions: 130000001 cycles: 121852354 heartbeat IPC: 0.723866 cumulative IPC: 0.741697 (Simulation time: 0 hr 38 min 33 sec) 
Heartbeat CPU 0 instructions: 130000001 cycles: 121872902 heartbeat IPC: 0.724448 cumulative IPC: 0.741541 (Simulation time: 0 hr 38 min 33 sec) 
Heartbeat CPU 1 instructions: 130000001 cycles: 121927918 heartbeat IPC: 0.723715 cumulative IPC: 0.741164 (Simulation time: 0 hr 38 min 34 sec) 
Heartbeat CPU 2 instructions: 130000001 cycles: 121943170 heartbeat IPC: 0.722895 cumulative IPC: 0.741068 (Simulation time: 0 hr 38 min 34 sec) 
Heartbeat CPU 3 instructions: 140000000 cycles: 134021668 heartbeat IPC: 0.821739 cumulative IPC: 0.749812 (Simulation time: 0 hr 41 min 26 sec) 
Heartbeat CPU 0 instructions: 140000000 cycles: 134044558 heartbeat IPC: 0.821581 cumulative IPC: 0.749656 (Simulation time: 0 hr 41 min 27 sec) 
Heartbeat CPU 1 instructions: 140000000 cycles: 134084377 heartbeat IPC: 0.822608 cumulative IPC: 0.749408 (Simulation time: 0 hr 41 min 27 sec) 
Heartbeat CPU 2 instructions: 140000000 cycles: 134097220 heartbeat IPC: 0.822771 cumulative IPC: 0.749336 (Simulation time: 0 hr 41 min 27 sec) 
Heartbeat CPU 3 instructions: 150000003 cycles: 147958767 heartbeat IPC: 0.71751 cumulative IPC: 0.746451 (Simulation time: 0 hr 44 min 17 sec) 
Heartbeat CPU 0 instructions: 150000003 cycles: 147983831 heartbeat IPC: 0.717398 cumulative IPC: 0.7463 (Simulation time: 0 hr 44 min 18 sec) 
Heartbeat CPU 1 instructions: 150000003 cycles: 148009760 heartbeat IPC: 0.718113 cumulative IPC: 0.746156 (Simulation time: 0 hr 44 min 18 sec) 
Heartbeat CPU 2 instructions: 150000003 cycles: 148039763 heartbeat IPC: 0.717229 cumulative IPC: 0.745996 (Simulation time: 0 hr 44 min 18 sec) 
Heartbeat CPU 3 instructions: 160000003 cycles: 161959994 heartbeat IPC: 0.714223 cumulative IPC: 0.743402 (Simulation time: 0 hr 47 min 7 sec) 
Heartbeat CPU 0 instructions: 160000003 cycles: 161984497 heartbeat IPC: 0.714252 cumulative IPC: 0.743268 (Simulation time: 0 hr 47 min 7 sec) 
Heartbeat CPU 1 instructions: 160000003 cycles: 162006018 heartbeat IPC: 0.714477 cumulative IPC: 0.74316 (Simulation time: 0 hr 47 min 7 sec) 
Heartbeat CPU 2 instructions: 160000003 cycles: 162025969 heartbeat IPC: 0.71499 cumulative IPC: 0.743067 (Simulation time: 0 hr 47 min 8 sec) 
Heartbeat CPU 3 instructions: 170000000 cycles: 173760447 heartbeat IPC: 0.847425 cumulative IPC: 0.751085 (Simulation time: 0 hr 50 min 0 sec) 
Heartbeat CPU 0 instructions: 170000000 cycles: 173780879 heartbeat IPC: 0.847717 cumulative IPC: 0.750979 (Simulation time: 0 hr 50 min 0 sec) 
Heartbeat CPU 1 instructions: 170000000 cycles: 173803060 heartbeat IPC: 0.84767 cumulative IPC: 0.750875 (Simulation time: 0 hr 50 min 0 sec) 
Heartbeat CPU 2 instructions: 170000000 cycles: 173809528 heartbeat IPC: 0.84864 cumulative IPC: 0.750851 (Simulation time: 0 hr 50 min 1 sec) 
Heartbeat CPU 3 instructions: 180000001 cycles: 184760576 heartbeat IPC: 0.90908 cumulative IPC: 0.761262 (Simulation time: 0 hr 52 min 58 sec) 
Heartbeat CPU 0 instructions: 180000001 cycles: 184780685 heartbeat IPC: 0.909107 cumulative IPC: 0.761163 (Simulation time: 0 hr 52 min 59 sec) 
Heartbeat CPU 1 instructions: 180000001 cycles: 184796677 heartbeat IPC: 0.909619 cumulative IPC: 0.761092 (Simulation time: 0 hr 52 min 59 sec) 
Heartbeat CPU 2 instructions: 180000001 cycles: 184806562 heartbeat IPC: 0.909336 cumulative IPC: 0.761054 (Simulation time: 0 hr 52 min 59 sec) 
Heartbeat CPU 3 instructions: 190000002 cycles: 195602500 heartbeat IPC: 0.922346 cumulative IPC: 0.770879 (Simulation time: 0 hr 55 min 44 sec) 
Heartbeat CPU 0 instructions: 190000002 cycles: 195617880 heartbeat IPC: 0.922748 cumulative IPC: 0.770805 (Simulation time: 0 hr 55 min 44 sec) 
Heartbeat CPU 1 instructions: 190000002 cycles: 195632475 heartbeat IPC: 0.922867 cumulative IPC: 0.770743 (Simulation time: 0 hr 55 min 44 sec) 
Heartbeat CPU 2 instructions: 190000002 cycles: 195632533 heartbeat IPC: 0.923705 cumulative IPC: 0.770748 (Simulation time: 0 hr 55 min 44 sec) 
Heartbeat CPU 3 instructions: 200000002 cycles: 206386872 heartbeat IPC: 0.927268 cumulative IPC: 0.779645 (Simulation time: 0 hr 58 min 40 sec) 
Heartbeat CPU 0 instructions: 200000002 cycles: 206387074 heartbeat IPC: 0.928575 cumulative IPC: 0.779636 (Simulation time: 0 hr 58 min 40 sec) 
Heartbeat CPU 1 instructions: 200000002 cycles: 206398055 heartbeat IPC: 0.928886 cumulative IPC: 0.779592 (Simulation time: 0 hr 58 min 40 sec) 
Heartbeat CPU 2 instructions: 200000002 cycles: 206398679 heartbeat IPC: 0.928837 cumulative IPC: 0.779594 (Simulation time: 0 hr 58 min 40 sec) 
Heartbeat CPU 0 instructions: 210000000 cycles: 217185959 heartbeat IPC: 0.926021 cumulative IPC: 0.787416 (Simulation time: 1 hr 1 min 38 sec) 
Heartbeat CPU 3 instructions: 210000000 cycles: 217188745 heartbeat IPC: 0.925765 cumulative IPC: 0.787412 (Simulation time: 1 hr 1 min 38 sec) 
Heartbeat CPU 1 instructions: 210000000 cycles: 217197284 heartbeat IPC: 0.925992 cumulative IPC: 0.787372 (Simulation time: 1 hr 1 min 38 sec) 
Heartbeat CPU 2 instructions: 210000000 cycles: 217197946 heartbeat IPC: 0.925989 cumulative IPC: 0.787374 (Simulation time: 1 hr 1 min 38 sec) 
Heartbeat CPU 0 instructions: 220000000 cycles: 228000866 heartbeat IPC: 0.92465 cumulative IPC: 0.794351 (Simulation time: 1 hr 4 min 44 sec) 
Heartbeat CPU 1 instructions: 220000000 cycles: 228007374 heartbeat IPC: 0.925062 cumulative IPC: 0.794327 (Simulation time: 1 hr 4 min 44 sec) 
Heartbeat CPU 3 instructions: 220000000 cycles: 228011163 heartbeat IPC: 0.924008 cumulative IPC: 0.79432 (Simulation time: 1 hr 4 min 44 sec) 
Heartbeat CPU 2 instructions: 220000000 cycles: 228011416 heartbeat IPC: 0.924773 cumulative IPC: 0.794316 (Simulation time: 1 hr 4 min 44 sec) 
Heartbeat CPU 1 instructions: 230000003 cycles: 238928863 heartbeat IPC: 0.915626 cumulative IPC: 0.800216 (Simulation time: 1 hr 7 min 33 sec) 
Heartbeat CPU 0 instructions: 230000003 cycles: 238929448 heartbeat IPC: 0.915032 cumulative IPC: 0.800214 (Simulation time: 1 hr 7 min 33 sec) 
Heartbeat CPU 3 instructions: 230000003 cycles: 238941787 heartbeat IPC: 0.914861 cumulative IPC: 0.800177 (Simulation time: 1 hr 7 min 33 sec) 
Heartbeat CPU 2 instructions: 230000003 cycles: 238942879 heartbeat IPC: 0.914791 cumulative IPC: 0.800171 (Simulation time: 1 hr 7 min 33 sec) 
Heartbeat CPU 0 instructions: 240000001 cycles: 249912550 heartbeat IPC: 0.910489 cumulative IPC: 0.805348 (Simulation time: 1 hr 10 min 38 sec) 
Heartbeat CPU 1 instructions: 240000001 cycles: 249913060 heartbeat IPC: 0.910399 cumulative IPC: 0.805346 (Simulation time: 1 hr 10 min 38 sec) 
Heartbeat CPU 3 instructions: 240000001 cycles: 249928224 heartbeat IPC: 0.910213 cumulative IPC: 0.805301 (Simulation time: 1 hr 10 min 38 sec) 
Heartbeat CPU 2 instructions: 240000001 cycles: 249928758 heartbeat IPC: 0.910259 cumulative IPC: 0.805297 (Simulation time: 1 hr 10 min 38 sec) 
Heartbeat CPU 1 instructions: 250000003 cycles: 260853169 heartbeat IPC: 0.914068 cumulative IPC: 0.810164 (Simulation time: 1 hr 13 min 44 sec) 
Finished CPU 1 instructions: 200000003 cycles: 246863092 cumulative IPC: 0.810166 (Simulation time: 1 hr 13 min 44 sec) 
Heartbeat CPU 0 instructions: 250000003 cycles: 260859151 heartbeat IPC: 0.913526 cumulative IPC: 0.810145 (Simulation time: 1 hr 13 min 44 sec) 
Finished CPU 0 instructions: 200000002 cycles: 246869046 cumulative IPC: 0.810146 (Simulation time: 1 hr 13 min 44 sec) 
Heartbeat CPU 3 instructions: 250000003 cycles: 260866305 heartbeat IPC: 0.914237 cumulative IPC: 0.810127 (Simulation time: 1 hr 13 min 44 sec) 
Finished CPU 3 instructions: 200000003 cycles: 246874749 cumulative IPC: 0.810127 (Simulation time: 1 hr 13 min 44 sec) 
Heartbeat CPU 2 instructions: 250000003 cycles: 260874933 heartbeat IPC: 0.913561 cumulative IPC: 0.810097 (Simulation time: 1 hr 13 min 44 sec) 
Finished CPU 2 instructions: 200000002 cycles: 246883761 cumulative IPC: 0.810098 (Simulation time: 1 hr 13 min 44 sec) 

ChampSim completed all CPUs

Total Simulation Statistics (not including warmup)

CPU 0 cumulative IPC: 0.810154 instructions: 200013951 cycles: 246883761
ITLB TOTAL     ACCESS:   28619889  HIT:   28619889  MISS:          0  HIT %:        100  MISS %:          0   MPKI: 0
ITLB LOAD      ACCESS:          0  HIT:          0  MISS:          0  HIT %:       -nan  MISS %:       -nan   MPKI: 0
ITLB RFO       ACCESS:          0  HIT:          0  MISS:          0  HIT %:       -nan  MISS %:       -nan   MPKI: 0
ITLB PREFETCH  ACCESS:          0  HIT:          0  MISS:          0  HIT %:       -nan  MISS %:       -nan   MPKI: 0
ITLB WRITEBACK ACCESS:          0  HIT:          0  MISS:          0  HIT %:       -nan  MISS %:       -nan   MPKI: 0
DTLB TOTAL     ACCESS:   37910104  HIT:   36989976  MISS:     920128  HIT %:    97.5729  MISS %:    2.42713   MPKI: 4.60032
DTLB LOAD      ACCESS:          0  HIT:          0  MISS:          0  HIT %:       -nan  MISS %:       -nan   MPKI: 0
DTLB RFO       ACCESS:          0  HIT:          0  MISS:          0  HIT %:       -nan  MISS %:       -nan   MPKI: 0
DTLB PREFETCH  ACCESS:          0  HIT:          0  MISS:          0  HIT %:       -nan  MISS %:       -nan   MPKI: 0
DTLB WRITEBACK ACCESS:          0  HIT:          0  MISS:          0  HIT %:       -nan  MISS %:       -nan   MPKI: 0
STLB TOTAL     ACCESS:    1235990  HIT:    1101715  MISS:     134275  HIT %:    89.1362  MISS %:    10.8638   MPKI: 0.671328
STLB LOAD      ACCESS:          0  HIT:          0  MISS:          0  HIT %:       -nan  MISS %:       -nan   MPKI: 0
STLB RFO       ACCESS:          0  HIT:          0  MISS:          0  HIT %:       -nan  MISS %:       -nan   MPKI: 0
STLB PREFETCH  ACCESS:          0  HIT:          0  MISS:          0  HIT %:       -nan  MISS %:       -nan   MPKI: 0
STLB WRITEBACK ACCESS:          0  HIT:          0  MISS:          0  HIT %:       -nan  MISS %:       -nan   MPKI: 0
L1D TOTAL     ACCESS:   48566603  HIT:   47447161  MISS:    1119442  HIT %:     97.695  MISS %:    2.30496   MPKI: 5.59682
L1D LOAD      ACCESS:   31023143  HIT:   30047453  MISS:     975690  HIT %:     96.855  MISS %:    3.14504   MPKI: 4.87811
L1D RFO       ACCESS:   16903112  HIT:   16766829  MISS:     136283  HIT %:    99.1937  MISS %:    0.80626   MPKI: 0.681367
L1D PREFETCH  ACCESS:     640348  HIT:     632879  MISS:       7469  HIT %:    98.8336  MISS %:     1.1664   MPKI: 0.0373424
L1D WRITEBACK ACCESS:          0  HIT:          0  MISS:          0  HIT %:       -nan  MISS %:       -nan   MPKI: 0
L1I TOTAL     ACCESS:   34164959  HIT:   34164567  MISS:        392  HIT %:    99.9989  MISS %: 0.00114737   MPKI: 0.00195986
L1I LOAD      ACCESS:   34164959  HIT:   34164567  MISS:        392  HIT %:    99.9989  MISS %: 0.00114737   MPKI: 0.00195986
L1I RFO       ACCESS:          0  HIT:          0  MISS:          0  HIT %:       -nan  MISS %:       -nan   MPKI: 0
L1I PREFETCH  ACCESS:          0  HIT:          0  MISS:          0  HIT %:       -nan  MISS %:       -nan   MPKI: 0
L1I WRITEBACK ACCESS:          0  HIT:          0  MISS:          0  HIT %:       -nan  MISS %:       -nan   MPKI: 0
L2C TOTAL     ACCESS:    2128582  HIT:    1495188  MISS:     633394  HIT %:    70.2434  MISS %:    29.7566   MPKI: 3.16675
L2C LOAD      ACCESS:     975985  HIT:     480734  MISS:     495251  HIT %:    49.2563  MISS %:    50.7437   MPKI: 2.47608
L2C RFO       ACCESS:     136254  HIT:      84901  MISS:      51353  HIT %:    62.3108  MISS %:    37.6892   MPKI: 0.256747
L2C PREFETCH  ACCESS:     120933  HIT:     103125  MISS:      17808  HIT %:    85.2745  MISS %:    14.7255   MPKI: 0.0890338
L2C WRITEBACK ACCESS:     758890  HIT:     727146  MISS:      31744  HIT %:     95.817  MISS %:    4.18295   MPKI: 0.158709
PSCL5 TOTAL     ACCESS:     136399  HIT:     136399  MISS:          0  HIT %:        100  MISS %:          0   MPKI: 0
PSCL5 LOAD      ACCESS:          0  HIT:          0  MISS:          0  HIT %:       -nan  MISS %:       -nan   MPKI: 0
PSCL5 RFO       ACCESS:          0  HIT:          0  MISS:          0  HIT %:       -nan  MISS %:       -nan   MPKI: 0
PSCL5 PREFETCH  ACCESS:          0  HIT:          0  MISS:          0  HIT %:       -nan  MISS %:       -nan   MPKI: 0
PSCL5 WRITEBACK ACCESS:          0  HIT:          0  MISS:          0  HIT %:       -nan  MISS %:       -nan   MPKI: 0
PSCL4 TOTAL     ACCESS:     136399  HIT:     136399  MISS:          0  HIT %:        100  MISS %:          0   MPKI: 0
PSCL4 LOAD      ACCESS:          0  HIT:          0  MISS:          0  HIT %:       -nan  MISS %:       -nan   MPKI: 0
PSCL4 RFO       ACCESS:          0  HIT:          0  MISS:          0  HIT %:       -nan  MISS %:       -nan   MPKI: 0
PSCL4 PREFETCH  ACCESS:          0  HIT:          0  MISS:          0  HIT %:       -nan  MISS %:       -nan   MPKI: 0
PSCL4 WRITEBACK ACCESS:          0  HIT:          0  MISS:          0  HIT %:       -nan  MISS %:       -nan   MPKI: 0
PSCL3 TOTAL     ACCESS:     136399  HIT:     136399  MISS:          0  HIT %:        100  MISS %:          0   MPKI: 0
PSCL3 LOAD      ACCESS:          0  HIT:          0  MISS:          0  HIT %:       -nan  MISS %:       -nan   MPKI: 0
PSCL3 RFO       ACCESS:          0  HIT:          0  MISS:          0  HIT %:       -nan  MISS %:       -nan   MPKI: 0
PSCL3 PREFETCH  ACCESS:          0  HIT:          0  MISS:          0  HIT %:       -nan  MISS %:       -nan   MPKI: 0
PSCL3 WRITEBACK ACCESS:          0  HIT:          0  MISS:          0  HIT %:       -nan  MISS %:       -nan   MPKI: 0
PSCL2 TOTAL     ACCESS:     136394  HIT:     136278  MISS:        116  HIT %:     99.915  MISS %:  0.0850477   MPKI: 0.00057996
PSCL2 LOAD      ACCESS:          0  HIT:          0  MISS:          0  HIT %:       -nan  MISS %:       -nan   MPKI: 0
PSCL2 RFO       ACCESS:          0  HIT:          0  MISS:          0  HIT %:       -nan  MISS %:       -nan   MPKI: 0
PSCL2 PREFETCH  ACCESS:          0  HIT:          0  MISS:          0  HIT %:       -nan  MISS %:       -nan   MPKI: 0
PSCL2 WRITEBACK ACCESS:          0  HIT:          0  MISS:          0  HIT %:       -nan  MISS %:       -nan   MPKI: 0
LLC TOTAL     ACCESS:     994270  HIT:     743044  MISS:     251226  HIT %:    74.7326  MISS %:    25.2674   MPKI: 1.25604
LLC LOAD      ACCESS:     495184  HIT:     294409  MISS:     200775  HIT %:    59.4545  MISS %:    40.5455   MPKI: 1.0038
LLC RFO       ACCESS:      51324  HIT:      19720  MISS:      31604  HIT %:    38.4226  MISS %:    61.5774   MPKI: 0.158009
LLC PREFETCH  ACCESS:      17902  HIT:       7659  MISS:      10243  HIT %:    42.7829  MISS %:    57.2171   MPKI: 0.0512114
LLC WRITEBACK ACCESS:     392622  HIT:     385127  MISS:       7495  HIT %:     98.091  MISS %:    1.90896   MPKI: 0.0374724

RAW hits: 2638476
Loads Generated: 47329653
Loads sent to L1D: 44691177
Stores Generated: 17199207
Stores sent to L1D: 17199208

CPU 1 cumulative IPC: 0.810178 instructions: 200019678 cycles: 246883761
ITLB TOTAL     ACCESS:   28620854  HIT:   28620854  MISS:          0  HIT %:        100  MISS %:          0   MPKI: 0
ITLB LOAD      ACCESS:          0  HIT:          0  MISS:          0  HIT %:       -nan  MISS %:       -nan   MPKI: 0
ITLB RFO       ACCESS:          0  HIT:          0  MISS:          0  HIT %:       -nan  MISS %:       -nan   MPKI: 0
ITLB PREFETCH  ACCESS:          0  HIT:          0  MISS:          0  HIT %:       -nan  MISS %:       -nan   MPKI: 0
ITLB WRITEBACK ACCESS:          0  HIT:          0  MISS:          0  HIT %:       -nan  MISS %:       -nan   MPKI: 0
DTLB TOTAL     ACCESS:   37910707  HIT:   36990578  MISS:     920129  HIT %:    97.5729  MISS %:     2.4271   MPKI: 4.60019
DTLB LOAD      ACCESS:          0  HIT:          0  MISS:          0  HIT %:       -nan  MISS %:       -nan   MPKI: 0
DTLB RFO       ACCESS:          0  HIT:          0  MISS:          0  HIT %:       -nan  MISS %:       -nan   MPKI: 0
DTLB PREFETCH  ACCESS:          0  HIT:          0  MISS:          0  HIT %:       -nan  MISS %:       -nan   MPKI: 0
DTLB WRITEBACK ACCESS:          0  HIT:          0  MISS:          0  HIT %:       -nan  MISS %:       -nan   MPKI: 0
STLB TOTAL     ACCESS:    1235004  HIT:    1100716  MISS:     134288  HIT %:    89.1265  MISS %:    10.8735   MPKI: 0.671374
STLB LOAD      ACCESS:          0  HIT:          0  MISS:          0  HIT %:       -nan  MISS %:       -nan   MPKI: 0
STLB RFO       ACCESS:          0  HIT:          0  MISS:          0  HIT %:       -nan  MISS %:       -nan   MPKI: 0
STLB PREFETCH  ACCESS:          0  HIT:          0  MISS:          0  HIT %:       -nan  MISS %:       -nan   MPKI: 0
STLB WRITEBACK ACCESS:          0  HIT:          0  MISS:          0  HIT %:       -nan  MISS %:       -nan   MPKI: 0
L1D TOTAL     ACCESS:   48563682  HIT:   47444102  MISS:    1119580  HIT %:    97.6946  MISS %:    2.30539   MPKI: 5.59735
L1D LOAD      ACCESS:   31023470  HIT:   30047777  MISS:     975693  HIT %:     96.855  MISS %:    3.14502   MPKI: 4.87799
L1D RFO       ACCESS:   16903338  HIT:   16767128  MISS:     136210  HIT %:    99.1942  MISS %:   0.805817   MPKI: 0.680983
L1D PREFETCH  ACCESS:     636874  HIT:     629197  MISS:       7677  HIT %:    98.7946  MISS %:    1.20542   MPKI: 0.0383812
L1D WRITEBACK ACCESS:          0  HIT:          0  MISS:          0  HIT %:       -nan  MISS %:       -nan   MPKI: 0
L1I TOTAL     ACCESS:   34166002  HIT:   34165610  MISS:        392  HIT %:    99.9989  MISS %: 0.00114734   MPKI: 0.00195981
L1I LOAD      ACCESS:   34166002  HIT:   34165610  MISS:        392  HIT %:    99.9989  MISS %: 0.00114734   MPKI: 0.00195981
L1I RFO       ACCESS:          0  HIT:          0  MISS:          0  HIT %:       -nan  MISS %:       -nan   MPKI: 0
L1I PREFETCH  ACCESS:          0  HIT:          0  MISS:          0  HIT %:       -nan  MISS %:       -nan   MPKI: 0
L1I WRITEBACK ACCESS:          0  HIT:          0  MISS:          0  HIT %:       -nan  MISS %:       -nan   MPKI: 0
L2C TOTAL     ACCESS:    2126649  HIT:    1497014  MISS:     629635  HIT %:    70.3931  MISS %:    29.6069   MPKI: 3.14787
L2C LOAD      ACCESS:     975961  HIT:     484046  MISS:     491915  HIT %:    49.5969  MISS %:    50.4031   MPKI: 2.45933
L2C RFO       ACCESS:     136181  HIT:      84934  MISS:      51247  HIT %:    62.3685  MISS %:    37.6315   MPKI: 0.25621
L2C PREFETCH  ACCESS:     119417  HIT:     101516  MISS:      17901  HIT %:    85.0097  MISS %:    14.9903   MPKI: 0.0894962
L2C WRITEBACK ACCESS:     758873  HIT:     727519  MISS:      31354  HIT %:    95.8683  MISS %:    4.13165   MPKI: 0.156755
PSCL5 TOTAL     ACCESS:     136127  HIT:     136127  MISS:          0  HIT %:        100  MISS %:          0   MPKI: 0
PSCL5 LOAD      ACCESS:          0  HIT:          0  MISS:          0  HIT %:       -nan  MISS %:       -nan   MPKI: 0
PSCL5 RFO       ACCESS:          0  HIT:          0  MISS:          0  HIT %:       -nan  MISS %:       -nan   MPKI: 0
PSCL5 PREFETCH  ACCESS:          0  HIT:          0  MISS:          0  HIT %:       -nan  MISS %:       -nan   MPKI: 0
PSCL5 WRITEBACK ACCESS:          0  HIT:          0  MISS:          0  HIT %:       -nan  MISS %:       -nan   MPKI: 0
PSCL4 TOTAL     ACCESS:     136127  HIT:     136127  MISS:          0  HIT %:        100  MISS %:          0   MPKI: 0
PSCL4 LOAD      ACCESS:          0  HIT:          0  MISS:          0  HIT %:       -nan  MISS %:       -nan   MPKI: 0
PSCL4 RFO       ACCESS:          0  HIT:          0  MISS:          0  HIT %:       -nan  MISS %:       -nan   MPKI: 0
PSCL4 PREFETCH  ACCESS:          0  HIT:          0  MISS:          0  HIT %:       -nan  MISS %:       -nan   MPKI: 0
PSCL4 WRITEBACK ACCESS:          0  HIT:          0  MISS:          0  HIT %:       -nan  MISS %:       -nan   MPKI: 0
PSCL3 TOTAL     ACCESS:     136127  HIT:     136127  MISS:          0  HIT %:        100  MISS %:          0   MPKI: 0
PSCL3 LOAD      ACCESS:          0  HIT:          0  MISS:          0  HIT %:       -nan  MISS %:       -nan   MPKI: 0
PSCL3 RFO       ACCESS:          0  HIT:          0  MISS:          0  HIT %:       -nan  MISS %:       -nan   MPKI: 0
PSCL3 PREFETCH  ACCESS:          0  HIT:          0  MISS:          0  HIT %:       -nan  MISS %:       -nan   MPKI: 0
PSCL3 WRITEBACK ACCESS:          0  HIT:          0  MISS:          0  HIT %:       -nan  MISS %:       -nan   MPKI: 0
PSCL2 TOTAL     ACCESS:     136125  HIT:     136037  MISS:         88  HIT %:    99.9354  MISS %:  0.0646465   MPKI: 0.000439957
PSCL2 LOAD      ACCESS:          0  HIT:          0  MISS:          0  HIT %:       -nan  MISS %:       -nan   MPKI: 0
PSCL2 RFO       ACCESS:          0  HIT:          0  MISS:          0  HIT %:       -nan  MISS %:       -nan   MPKI: 0
PSCL2 PREFETCH  ACCESS:          0  HIT:          0  MISS:          0  HIT %:       -nan  MISS %:       -nan   MPKI: 0
PSCL2 WRITEBACK ACCESS:          0  HIT:          0  MISS:          0  HIT %:       -nan  MISS %:       -nan   MPKI: 0
LLC TOTAL     ACCESS:     988300  HIT:     736984  MISS:     251316  HIT %:    74.5709  MISS %:    25.4291   MPKI: 1.25646
LLC LOAD      ACCESS:     491858  HIT:     290576  MISS:     201282  HIT %:    59.0772  MISS %:    40.9228   MPKI: 1.00631
LLC RFO       ACCESS:      51228  HIT:      19507  MISS:      31721  HIT %:    38.0788  MISS %:    61.9212   MPKI: 0.158589
LLC PREFETCH  ACCESS:      17975  HIT:       8053  MISS:       9922  HIT %:    44.8011  MISS %:    55.1989   MPKI: 0.0496051
LLC WRITEBACK ACCESS:     390021  HIT:     382913  MISS:       7108  HIT %:    98.1775  MISS %:    1.82247   MPKI: 0.0355365

RAW hits: 2638496
Loads Generated: 47331012
Loads sent to L1D: 44692515
Stores Generated: 17199644
Stores sent to L1D: 17199645

CPU 2 cumulative IPC: 0.810098 instructions: 200000002 cycles: 246883761
ITLB TOTAL     ACCESS:   28617844  HIT:   28617844  MISS:          0  HIT %:        100  MISS %:          0   MPKI: 0
ITLB LOAD      ACCESS:          0  HIT:          0  MISS:          0  HIT %:       -nan  MISS %:       -nan   MPKI: 0
ITLB RFO       ACCESS:          0  HIT:          0  MISS:          0  HIT %:       -nan  MISS %:       -nan   MPKI: 0
ITLB PREFETCH  ACCESS:          0  HIT:          0  MISS:          0  HIT %:       -nan  MISS %:       -nan   MPKI: 0
ITLB WRITEBACK ACCESS:          0  HIT:          0  MISS:          0  HIT %:       -nan  MISS %:       -nan   MPKI: 0
DTLB TOTAL     ACCESS:   37906499  HIT:   36986432  MISS:     920067  HIT %:    97.5728  MISS %:     2.4272   MPKI: 4.60033
DTLB LOAD      ACCESS:          0  HIT:          0  MISS:          0  HIT %:       -nan  MISS %:       -nan   MPKI: 0
DTLB RFO       ACCESS:          0  HIT:          0  MISS:          0  HIT %:       -nan  MISS %:       -nan   MPKI: 0
DTLB PREFETCH  ACCESS:          0  HIT:          0  MISS:          0  HIT %:       -nan  MISS %:       -nan   MPKI: 0
DTLB WRITEBACK ACCESS:          0  HIT:          0  MISS:          0  HIT %:       -nan  MISS %:       -nan   MPKI: 0
STLB TOTAL     ACCESS:    1244291  HIT:    1110021  MISS:     134270  HIT %:    89.2091  MISS %:    10.7909   MPKI: 0.67135
STLB LOAD      ACCESS:          0  HIT:          0  MISS:          0  HIT %:       -nan  MISS %:       -nan   MPKI: 0
STLB RFO       ACCESS:          0  HIT:          0  MISS:          0  HIT %:       -nan  MISS %:       -nan   MPKI: 0
STLB PREFETCH  ACCESS:          0  HIT:          0  MISS:          0  HIT %:       -nan  MISS %:       -nan   MPKI: 0
STLB WRITEBACK ACCESS:          0  HIT:          0  MISS:          0  HIT %:       -nan  MISS %:       -nan   MPKI: 0
L1D TOTAL     ACCESS:   48553846  HIT:   47434423  MISS:    1119423  HIT %:    97.6945  MISS %:    2.30553   MPKI: 5.59711
L1D LOAD      ACCESS:   31019123  HIT:   30043331  MISS:     975792  HIT %:    96.8542  MISS %:    3.14578   MPKI: 4.87896
L1D RFO       ACCESS:   16901778  HIT:   16765557  MISS:     136221  HIT %:     99.194  MISS %:   0.805957   MPKI: 0.681105
L1D PREFETCH  ACCESS:     632945  HIT:     625535  MISS:       7410  HIT %:    98.8293  MISS %:    1.17072   MPKI: 0.03705
L1D WRITEBACK ACCESS:          0  HIT:          0  MISS:          0  HIT %:       -nan  MISS %:       -nan   MPKI: 0
L1I TOTAL     ACCESS:   34162552  HIT:   34162160  MISS:        392  HIT %:    99.9989  MISS %: 0.00114746   MPKI: 0.00196
L1I LOAD      ACCESS:   34162552  HIT:   34162160  MISS:        392  HIT %:    99.9989  MISS %: 0.00114746   MPKI: 0.00196
L1I RFO       ACCESS:          0  HIT:          0  MISS:          0  HIT %:       -nan  MISS %:       -nan   MPKI: 0
L1I PREFETCH  ACCESS:          0  HIT:          0  MISS:          0  HIT %:       -nan  MISS %:       -nan   MPKI: 0
L1I WRITEBACK ACCESS:          0  HIT:          0  MISS:          0  HIT %:       -nan  MISS %:       -nan   MPKI: 0
L2C TOTAL     ACCESS:    2132763  HIT:    1495659  MISS:     637104  HIT %:    70.1278  MISS %:    29.8722   MPKI: 3.18552
L2C LOAD      ACCESS:     975966  HIT:     479368  MISS:     496598  HIT %:    49.1173  MISS %:    50.8827   MPKI: 2.48299
L2C RFO       ACCESS:     136191  HIT:      84342  MISS:      51849  HIT %:    61.9292  MISS %:    38.0708   MPKI: 0.259245
L2C PREFETCH  ACCESS:     125738  HIT:     107629  MISS:      18109  HIT %:    85.5978  MISS %:    14.4022   MPKI: 0.090545
L2C WRITEBACK ACCESS:     758818  HIT:     725743  MISS:      33075  HIT %:    95.6412  MISS %:    4.35875   MPKI: 0.165375
PSCL5 TOTAL     ACCESS:     135942  HIT:     135942  MISS:          0  HIT %:        100  MISS %:          0   MPKI: 0
PSCL5 LOAD      ACCESS:          0  HIT:          0  MISS:          0  HIT %:       -nan  MISS %:       -nan   MPKI: 0
PSCL5 RFO       ACCESS:          0  HIT:          0  MISS:          0  HIT %:       -nan  MISS %:       -nan   MPKI: 0
PSCL5 PREFETCH  ACCESS:          0  HIT:          0  MISS:          0  HIT %:       -nan  MISS %:       -nan   MPKI: 0
PSCL5 WRITEBACK ACCESS:          0  HIT:          0  MISS:          0  HIT %:       -nan  MISS %:       -nan   MPKI: 0
PSCL4 TOTAL     ACCESS:     135942  HIT:     135942  MISS:          0  HIT %:        100  MISS %:          0   MPKI: 0
PSCL4 LOAD      ACCESS:          0  HIT:          0  MISS:          0  HIT %:       -nan  MISS %:       -nan   MPKI: 0
PSCL4 RFO       ACCESS:          0  HIT:          0  MISS:          0  HIT %:       -nan  MISS %:       -nan   MPKI: 0
PSCL4 PREFETCH  ACCESS:          0  HIT:          0  MISS:          0  HIT %:       -nan  MISS %:       -nan   MPKI: 0
PSCL4 WRITEBACK ACCESS:          0  HIT:          0  MISS:          0  HIT %:       -nan  MISS %:       -nan   MPKI: 0
PSCL3 TOTAL     ACCESS:     135942  HIT:     135942  MISS:          0  HIT %:        100  MISS %:          0   MPKI: 0
PSCL3 LOAD      ACCESS:          0  HIT:          0  MISS:          0  HIT %:       -nan  MISS %:       -nan   MPKI: 0
PSCL3 RFO       ACCESS:          0  HIT:          0  MISS:          0  HIT %:       -nan  MISS %:       -nan   MPKI: 0
PSCL3 PREFETCH  ACCESS:          0  HIT:          0  MISS:          0  HIT %:       -nan  MISS %:       -nan   MPKI: 0
PSCL3 WRITEBACK ACCESS:          0  HIT:          0  MISS:          0  HIT %:       -nan  MISS %:       -nan   MPKI: 0
PSCL2 TOTAL     ACCESS:     135941  HIT:     135834  MISS:        107  HIT %:    99.9213  MISS %:  0.0787106   MPKI: 0.000535
PSCL2 LOAD      ACCESS:          0  HIT:          0  MISS:          0  HIT %:       -nan  MISS %:       -nan   MPKI: 0
PSCL2 RFO       ACCESS:          0  HIT:          0  MISS:          0  HIT %:       -nan  MISS %:       -nan   MPKI: 0
PSCL2 PREFETCH  ACCESS:          0  HIT:          0  MISS:          0  HIT %:       -nan  MISS %:       -nan   MPKI: 0
PSCL2 WRITEBACK ACCESS:          0  HIT:          0  MISS:          0  HIT %:       -nan  MISS %:       -nan   MPKI: 0
LLC TOTAL     ACCESS:     998671  HIT:     747463  MISS:     251208  HIT %:    74.8458  MISS %:    25.1542   MPKI: 1.25604
LLC LOAD      ACCESS:     496522  HIT:     295557  MISS:     200965  HIT %:    59.5255  MISS %:    40.4745   MPKI: 1.00482
LLC RFO       ACCESS:      51831  HIT:      20245  MISS:      31586  HIT %:    39.0596  MISS %:    60.9404   MPKI: 0.15793
LLC PREFETCH  ACCESS:      18201  HIT:       8172  MISS:      10029  HIT %:    44.8986  MISS %:    55.1014   MPKI: 0.050145
LLC WRITEBACK ACCESS:     394644  HIT:     387294  MISS:       7350  HIT %:    98.1376  MISS %:    1.86244   MPKI: 0.03675

RAW hits: 2638376
Loads Generated: 47326205
Loads sent to L1D: 44687829
Stores Generated: 17197841
Stores sent to L1D: 17197841

CPU 3 cumulative IPC: 0.810134 instructions: 200008989 cycles: 246883761
ITLB TOTAL     ACCESS:   28619463  HIT:   28619463  MISS:          0  HIT %:        100  MISS %:          0   MPKI: 0
ITLB LOAD      ACCESS:          0  HIT:          0  MISS:          0  HIT %:       -nan  MISS %:       -nan   MPKI: 0
ITLB RFO       ACCESS:          0  HIT:          0  MISS:          0  HIT %:       -nan  MISS %:       -nan   MPKI: 0
ITLB PREFETCH  ACCESS:          0  HIT:          0  MISS:          0  HIT %:       -nan  MISS %:       -nan   MPKI: 0
ITLB WRITEBACK ACCESS:          0  HIT:          0  MISS:          0  HIT %:       -nan  MISS %:       -nan   MPKI: 0
DTLB TOTAL     ACCESS:   37906874  HIT:   36986752  MISS:     920122  HIT %:    97.5727  MISS %:    2.42732   MPKI: 4.6004
DTLB LOAD      ACCESS:          0  HIT:          0  MISS:          0  HIT %:       -nan  MISS %:       -nan   MPKI: 0
DTLB RFO       ACCESS:          0  HIT:          0  MISS:          0  HIT %:       -nan  MISS %:       -nan   MPKI: 0
DTLB PREFETCH  ACCESS:          0  HIT:          0  MISS:          0  HIT %:       -nan  MISS %:       -nan   MPKI: 0
DTLB WRITEBACK ACCESS:          0  HIT:          0  MISS:          0  HIT %:       -nan  MISS %:       -nan   MPKI: 0
STLB TOTAL     ACCESS:    1231399  HIT:    1097115  MISS:     134284  HIT %:     89.095  MISS %:     10.905   MPKI: 0.67139
STLB LOAD      ACCESS:          0  HIT:          0  MISS:          0  HIT %:       -nan  MISS %:       -nan   MPKI: 0
STLB RFO       ACCESS:          0  HIT:          0  MISS:          0  HIT %:       -nan  MISS %:       -nan   MPKI: 0
STLB PREFETCH  ACCESS:          0  HIT:          0  MISS:          0  HIT %:       -nan  MISS %:       -nan   MPKI: 0
STLB WRITEBACK ACCESS:          0  HIT:          0  MISS:          0  HIT %:       -nan  MISS %:       -nan   MPKI: 0
L1D TOTAL     ACCESS:   48556611  HIT:   47437249  MISS:    1119362  HIT %:    97.6947  MISS %:    2.30527   MPKI: 5.59656
L1D LOAD      ACCESS:   31019842  HIT:   30044190  MISS:     975652  HIT %:    96.8547  MISS %:    3.14525   MPKI: 4.87804
L1D RFO       ACCESS:   16902211  HIT:   16765953  MISS:     136258  HIT %:    99.1938  MISS %:   0.806155   MPKI: 0.681259
L1D PREFETCH  ACCESS:     634558  HIT:     627106  MISS:       7452  HIT %:    98.8256  MISS %:    1.17436   MPKI: 0.0372583
L1D WRITEBACK ACCESS:          0  HIT:          0  MISS:          0  HIT %:       -nan  MISS %:       -nan   MPKI: 0
L1I TOTAL     ACCESS:   34164289  HIT:   34163897  MISS:        392  HIT %:    99.9989  MISS %:  0.0011474   MPKI: 0.00195991
L1I LOAD      ACCESS:   34164289  HIT:   34163897  MISS:        392  HIT %:    99.9989  MISS %:  0.0011474   MPKI: 0.00195991
L1I RFO       ACCESS:          0  HIT:          0  MISS:          0  HIT %:       -nan  MISS %:       -nan   MPKI: 0
L1I PREFETCH  ACCESS:          0  HIT:          0  MISS:          0  HIT %:       -nan  MISS %:       -nan   MPKI: 0
L1I WRITEBACK ACCESS:          0  HIT:          0  MISS:          0  HIT %:       -nan  MISS %:       -nan   MPKI: 0
L2C TOTAL     ACCESS:    2131863  HIT:    1496009  MISS:     635854  HIT %:    70.1738  MISS %:    29.8262   MPKI: 3.17913
L2C LOAD      ACCESS:     975939  HIT:     480256  MISS:     495683  HIT %:    49.2096  MISS %:    50.7904   MPKI: 2.4783
L2C RFO       ACCESS:     136230  HIT:      84356  MISS:      51874  HIT %:    61.9217  MISS %:    38.0783   MPKI: 0.259358
L2C PREFETCH  ACCESS:     124719  HIT:     106864  MISS:      17855  HIT %:    85.6838  MISS %:    14.3162   MPKI: 0.089271
L2C WRITEBACK ACCESS:     758817  HIT:     726832  MISS:      31985  HIT %:    95.7849  MISS %:    4.21511   MPKI: 0.159918
PSCL5 TOTAL     ACCESS:     136050  HIT:     136050  MISS:          0  HIT %:        100  MISS %:          0   MPKI: 0
PSCL5 LOAD      ACCESS:          0  HIT:          0  MISS:          0  HIT %:       -nan  MISS %:       -nan   MPKI: 0
PSCL5 RFO       ACCESS:          0  HIT:          0  MISS:          0  HIT %:       -nan  MISS %:       -nan   MPKI: 0
PSCL5 PREFETCH  ACCESS:          0  HIT:          0  MISS:          0  HIT %:       -nan  MISS %:       -nan   MPKI: 0
PSCL5 WRITEBACK ACCESS:          0  HIT:          0  MISS:          0  HIT %:       -nan  MISS %:       -nan   MPKI: 0
PSCL4 TOTAL     ACCESS:     136050  HIT:     136050  MISS:          0  HIT %:        100  MISS %:          0   MPKI: 0
PSCL4 LOAD      ACCESS:          0  HIT:          0  MISS:          0  HIT %:       -nan  MISS %:       -nan   MPKI: 0
PSCL4 RFO       ACCESS:          0  HIT:          0  MISS:          0  HIT %:       -nan  MISS %:       -nan   MPKI: 0
PSCL4 PREFETCH  ACCESS:          0  HIT:          0  MISS:          0  HIT %:       -nan  MISS %:       -nan   MPKI: 0
PSCL4 WRITEBACK ACCESS:          0  HIT:          0  MISS:          0  HIT %:       -nan  MISS %:       -nan   MPKI: 0
PSCL3 TOTAL     ACCESS:     136050  HIT:     136050  MISS:          0  HIT %:        100  MISS %:          0   MPKI: 0
PSCL3 LOAD      ACCESS:          0  HIT:          0  MISS:          0  HIT %:       -nan  MISS %:       -nan   MPKI: 0
PSCL3 RFO       ACCESS:          0  HIT:          0  MISS:          0  HIT %:       -nan  MISS %:       -nan   MPKI: 0
PSCL3 PREFETCH  ACCESS:          0  HIT:          0  MISS:          0  HIT %:       -nan  MISS %:       -nan   MPKI: 0
PSCL3 WRITEBACK ACCESS:          0  HIT:          0  MISS:          0  HIT %:       -nan  MISS %:       -nan   MPKI: 0
PSCL2 TOTAL     ACCESS:     136049  HIT:     135942  MISS:        107  HIT %:    99.9214  MISS %:  0.0786481   MPKI: 0.000534976
PSCL2 LOAD      ACCESS:          0  HIT:          0  MISS:          0  HIT %:       -nan  MISS %:       -nan   MPKI: 0
PSCL2 RFO       ACCESS:          0  HIT:          0  MISS:          0  HIT %:       -nan  MISS %:       -nan   MPKI: 0
PSCL2 PREFETCH  ACCESS:          0  HIT:          0  MISS:          0  HIT %:       -nan  MISS %:       -nan   MPKI: 0
PSCL2 WRITEBACK ACCESS:          0  HIT:          0  MISS:          0  HIT %:       -nan  MISS %:       -nan   MPKI: 0
LLC TOTAL     ACCESS:     997029  HIT:     746865  MISS:     250164  HIT %:    74.9091  MISS %:    25.0909   MPKI: 1.25076
LLC LOAD      ACCESS:     495618  HIT:     295367  MISS:     200251  HIT %:    59.5957  MISS %:    40.4043   MPKI: 1.00121
LLC RFO       ACCESS:      51845  HIT:      20167  MISS:      31678  HIT %:    38.8986  MISS %:    61.1014   MPKI: 0.158383
LLC PREFETCH  ACCESS:      17949  HIT:       8439  MISS:       9510  HIT %:    47.0165  MISS %:    52.9835   MPKI: 0.0475479
LLC WRITEBACK ACCESS:     393160  HIT:     385719  MISS:       7441  HIT %:    98.1074  MISS %:    1.89261   MPKI: 0.0372033

RAW hits: 2638664
Loads Generated: 47328273
Loads sent to L1D: 44689606
Stores Generated: 17198598
Stores sent to L1D: 17198598

Region of Interest Statistics

CPU 0 cumulative IPC: 0.810146 instructions: 200000002 cycles: 246869046
ITLB TOTAL     ACCESS:   28617996  HIT:   28617996  MISS:          0  HIT %:        100  MISS %:          0   MPKI: 0
ITLB LOAD TRANSLATION ACCESS:   28617996  HIT:   28617996  MISS:          0  HIT %:        100  MISS %:          0   MPKI: 0
ITLB PREFETCH  REQUESTED:          0  ISSUED:          0  USEFUL:          0  USELESS:          0
ITLB USEFUL LOAD PREFETCHES:          0 PREFETCH ISSUED TO LOWER LEVEL:          0  ACCURACY: -nan
ITLB TIMELY PREFETCHES:          0 LATE PREFETCHES: 0 DROPPED PREFETCHES: 0
ITLB PREFETCHES SAME FILL-ORIGIN LEVEL: 0 DIFFERENT FILL-ORIGIN LEVEL: 0
ITLB AVERAGE MISS LATENCY: -nan cycles
ITLB RQ	ACCESS:   34165165	FORWARD:          0	MERGED:    5545276	TO_CACHE:   28619889

DTLB TOTAL     ACCESS:   37907343  HIT:   36987267  MISS:     920076  HIT %:    97.5728  MISS %:    2.42717   MPKI: 4.60038
DTLB LOAD TRANSLATION ACCESS:   37907343  HIT:   36987267  MISS:     920076  HIT %:    97.5728  MISS %:    2.42717   MPKI: 4.60038
DTLB PREFETCH  REQUESTED:          0  ISSUED:          0  USEFUL:          0  USELESS:          0
DTLB USEFUL LOAD PREFETCHES:          0 PREFETCH ISSUED TO LOWER LEVEL:          0  ACCURACY: -nan
DTLB TIMELY PREFETCHES:          0 LATE PREFETCHES: 0 DROPPED PREFETCHES: 0
DTLB PREFETCHES SAME FILL-ORIGIN LEVEL: 0 DIFFERENT FILL-ORIGIN LEVEL: 0
DTLB AVERAGE MISS LATENCY: 13.7124 cycles
DTLB RQ	ACCESS:   48089523	FORWARD:          0	MERGED:   10170362	TO_CACHE:   37919161

STLB TOTAL     ACCESS:    1235914  HIT:    1101641  MISS:     134273  HIT %:    89.1357  MISS %:    10.8643   MPKI: 0.671365
STLB LOAD TRANSLATION ACCESS:     920076  HIT:     785994  MISS:     134082  HIT %:    85.4271  MISS %:    14.5729   MPKI: 0.67041
STLB TRANSLATION FROM L1D PREFETCHER ACCESS:     315838  HIT:     315647  MISS:        191  HIT %:    99.9395  MISS %:   0.060474   MPKI: 0.000955
STLB PREFETCH  REQUESTED:          0  ISSUED:          0  USEFUL:        151  USELESS:         40
STLB USEFUL LOAD PREFETCHES:        151 PREFETCH ISSUED TO LOWER LEVEL:          0  ACCURACY: inf
STLB TIMELY PREFETCHES:        151 LATE PREFETCHES: 10 DROPPED PREFETCHES: 2114
STLB PREFETCHES SAME FILL-ORIGIN LEVEL: 0 DIFFERENT FILL-ORIGIN LEVEL: 0
STLB AVERAGE MISS LATENCY: 32.2374 cycles
STLB RQ	ACCESS:    1714540	FORWARD:          0	MERGED:     476120	TO_CACHE:    1238420

STLB Hit, L1D data hit: 0
STLB Hit, L2C data hit: 0
STLB Hit, LLC data hit: 0
STLB Hit, LLC data miss: 0
STLB STLB hints to L2: 0
L1D TOTAL     ACCESS:   48562953  HIT:   47443595  MISS:    1119358  HIT %:     97.695  MISS %:    2.30496   MPKI: 5.59679
L1D LOAD      ACCESS:   31020794  HIT:   30045176  MISS:     975618  HIT %:     96.855  MISS %:    3.14505   MPKI: 4.87809
L1D RFO       ACCESS:   16901831  HIT:   16765560  MISS:     136271  HIT %:    99.1938  MISS %:    0.80625   MPKI: 0.681355
L1D PREFETCH  ACCESS:     640328  HIT:     632859  MISS:       7469  HIT %:    98.8336  MISS %:    1.16643   MPKI: 0.037345
L1D PREFETCH  REQUESTED:    1687771  ISSUED:    1687648  USEFUL:       6257  USELESS:       1212
L1D USEFUL LOAD PREFETCHES:       6257 PREFETCH ISSUED TO LOWER LEVEL:     127099  ACCURACY: 4.92293
L1D TIMELY PREFETCHES:       6257 LATE PREFETCHES: 87 DROPPED PREFETCHES: 5805
L1D PREFETCHES SAME FILL-ORIGIN LEVEL: 7561 DIFFERENT FILL-ORIGIN LEVEL: 119538
L1D AVERAGE MISS LATENCY: 67.3972 cycles
L1D RQ	ACCESS:   44691177	FORWARD:          0	MERGED:   13503779	TO_CACHE:   31127468
L1D WQ	ACCESS:   17199208	FORWARD:      59931	MERGED:     237153	TO_CACHE:   16962055
L1D PQ	ACCESS:     893236	FORWARD:          0	MERGED:      98823	TO_CACHE:     794412

L1D UNIQUE REGIONS ACCESSED: 0
L1D REGIONS CONFLICTS: 0
L1D Cross Page Prefetch Requests: 108637
L1D Same Page Prefetch Requests: 1095807
L1D ROI Sum of L1D PQ occupancy: 9562901
L1D PREFETCHES PUSHED FROM L2C: 0
L1I TOTAL     ACCESS:   34162684  HIT:   34162292  MISS:        392  HIT %:    99.9989  MISS %: 0.00114745   MPKI: 0.00196
L1I LOAD      ACCESS:   34162684  HIT:   34162292  MISS:        392  HIT %:    99.9989  MISS %: 0.00114745   MPKI: 0.00196
L1I PREFETCH  REQUESTED:          0  ISSUED:          0  USEFUL:          0  USELESS:          0
L1I USEFUL LOAD PREFETCHES:          0 PREFETCH ISSUED TO LOWER LEVEL:          0  ACCURACY: -nan
L1I TIMELY PREFETCHES:          0 LATE PREFETCHES: 0 DROPPED PREFETCHES: 0
L1I PREFETCHES SAME FILL-ORIGIN LEVEL: 0 DIFFERENT FILL-ORIGIN LEVEL: 0
L1I AVERAGE MISS LATENCY: 71.7398 cycles
L1I RQ	ACCESS:   50635542	FORWARD:          0	MERGED:   16470377	TO_CACHE:   34165165

BTB TOTAL     ACCESS:   23485767  HIT:   23238937  MISS:     246830  HIT %:     98.949  MISS %:    1.05098   MPKI: 1.23415
BTB BRANCH_DIRECT_JUMP	ACCESS:    2818451  HIT:    2818373  MISS:         78
BTB BRANCH_INDIRECT	ACCESS:     447403  HIT:     208958  MISS:     238445
BTB BRANCH_CONDITIONAL	ACCESS:   19634937  HIT:   19634690  MISS:        247
BTB BRANCH_DIRECT_CALL	ACCESS:     190457  HIT:     190438  MISS:         19
BTB BRANCH_INDIRECT_CALL	ACCESS:     102031  HIT:     102024  MISS:          7
BTB BRANCH_RETURN	ACCESS:     292488  HIT:     284454  MISS:       8034
BTB BRANCH_OTHER ACCESS:          0  HIT:          0  MISS:          0

L2C TOTAL     ACCESS:    2128435  HIT:    1495080  MISS:     633355  HIT %:    70.2432  MISS %:    29.7568   MPKI: 3.16677
L2C LOAD      ACCESS:     975913  HIT:     480693  MISS:     495220  HIT %:    49.2557  MISS %:    50.7443   MPKI: 2.4761
L2C DATA LOAD MPKI: 2.4742
L2C INSTRUCTION LOAD MPKI: 0.0019
L2C RFO       ACCESS:     136242  HIT:      84895  MISS:      51347  HIT %:    62.3119  MISS %:    37.6881   MPKI: 0.256735
L2C PREFETCH  ACCESS:     120929  HIT:     103121  MISS:      17808  HIT %:     85.274  MISS %:     14.726   MPKI: 0.08904
L2C DATA PREFETCH MPKI: 0.08904
L2C INSTRUCTION PREFETCH MPKI: 0
L2C WRITEBACK ACCESS:     758833  HIT:     727090  MISS:      31743  HIT %:    95.8169  MISS %:    4.18313   MPKI: 0.158715
L2C LOAD TRANSLATION ACCESS:     134188  HIT:      97061  MISS:      37127  HIT %:    72.3321  MISS %:    27.6679   MPKI: 0.185635
L2C TRANSLATION FROM L1D PREFETCHER ACCESS:       2330  HIT:       2220  MISS:        110  HIT %:     95.279  MISS %:    4.72103   MPKI: 0.00055
L2C PREFETCH  REQUESTED:          0  ISSUED:          0  USEFUL:       5000  USELESS:      12734
L2C USEFUL LOAD PREFETCHES:       5000 PREFETCH ISSUED TO LOWER LEVEL:      17902  ACCURACY: 27.9298
L2C TIMELY PREFETCHES:       5000 LATE PREFETCHES: 94 DROPPED PREFETCHES: 0
L2C PREFETCHES SAME FILL-ORIGIN LEVEL: 13191 DIFFERENT FILL-ORIGIN LEVEL: 0
L2C AVERAGE MISS LATENCY: 101.088 cycles
L2C RQ	ACCESS:    1248794	FORWARD:          0	MERGED:          0	TO_CACHE:    1248760
L2C WQ	ACCESS:     758890	FORWARD:         34	MERGED:          0	TO_CACHE:     758890
L2C PQ	ACCESS:     127088	FORWARD:          0	MERGED:        135	TO_CACHE:     126953

L2C Instructions Evicting Data 344
L2C Translations Evicting Data 35307
L2C Data Evicting Data 530063
L2C Instructions Evicting Instructions 5
L2C Translations Evicting Instructions 31
L2C Data Evicting Instructions 313
L2C Instructions Evicting Translations 31
L2C Translations Evicting Translations 1900
L2C Data Evicting Translations 33656
L2C Dense regions hint from L2: 0
PSCL5 TOTAL     ACCESS:     136397  HIT:     136397  MISS:          0  HIT %:        100  MISS %:          0   MPKI: 0
PSCL5 LOAD TRANSLATION ACCESS:     134082  HIT:     134082  MISS:          0  HIT %:        100  MISS %:          0   MPKI: 0
PSCL5 TRANSLATION FROM L1D PREFETCHER ACCESS:       2315  HIT:       2315  MISS:          0  HIT %:        100  MISS %:          0   MPKI: 0
PSCL5 PREFETCH  REQUESTED:          0  ISSUED:          0  USEFUL:          0  USELESS:          0
PSCL5 USEFUL LOAD PREFETCHES:          0 PREFETCH ISSUED TO LOWER LEVEL:          0  ACCURACY: -nan
PSCL5 TIMELY PREFETCHES:          0 LATE PREFETCHES: 0 DROPPED PREFETCHES: 0
PSCL5 PREFETCHES SAME FILL-ORIGIN LEVEL: 0 DIFFERENT FILL-ORIGIN LEVEL: 0

PSCL4 TOTAL     ACCESS:     136397  HIT:     136397  MISS:          0  HIT %:        100  MISS %:          0   MPKI: 0
PSCL4 LOAD TRANSLATION ACCESS:     134082  HIT:     134082  MISS:          0  HIT %:        100  MISS %:          0   MPKI: 0
PSCL4 TRANSLATION FROM L1D PREFETCHER ACCESS:       2315  HIT:       2315  MISS:          0  HIT %:        100  MISS %:          0   MPKI: 0
PSCL4 PREFETCH  REQUESTED:          0  ISSUED:          0  USEFUL:          0  USELESS:          0
PSCL4 USEFUL LOAD PREFETCHES:          0 PREFETCH ISSUED TO LOWER LEVEL:          0  ACCURACY: -nan
PSCL4 TIMELY PREFETCHES:          0 LATE PREFETCHES: 0 DROPPED PREFETCHES: 0
PSCL4 PREFETCHES SAME FILL-ORIGIN LEVEL: 0 DIFFERENT FILL-ORIGIN LEVEL: 0

PSCL3 TOTAL     ACCESS:     136397  HIT:     136397  MISS:          0  HIT %:        100  MISS %:          0   MPKI: 0
PSCL3 LOAD TRANSLATION ACCESS:     134082  HIT:     134082  MISS:          0  HIT %:        100  MISS %:          0   MPKI: 0
PSCL3 TRANSLATION FROM L1D PREFETCHER ACCESS:       2315  HIT:       2315  MISS:          0  HIT %:        100  MISS %:          0   MPKI: 0
PSCL3 PREFETCH  REQUESTED:          0  ISSUED:          0  USEFUL:          0  USELESS:          0
PSCL3 USEFUL LOAD PREFETCHES:          0 PREFETCH ISSUED TO LOWER LEVEL:          0  ACCURACY: -nan
PSCL3 TIMELY PREFETCHES:          0 LATE PREFETCHES: 0 DROPPED PREFETCHES: 0
PSCL3 PREFETCHES SAME FILL-ORIGIN LEVEL: 0 DIFFERENT FILL-ORIGIN LEVEL: 0

PSCL2 TOTAL     ACCESS:     136392  HIT:     136276  MISS:        116  HIT %:     99.915  MISS %:   0.085049   MPKI: 0.00058
PSCL2 LOAD TRANSLATION ACCESS:     134092  HIT:     133976  MISS:        116  HIT %:    99.9135  MISS %:  0.0865078   MPKI: 0.00058
PSCL2 TRANSLATION FROM L1D PREFETCHER ACCESS:       2300  HIT:       2300  MISS:          0  HIT %:        100  MISS %:          0   MPKI: 0
PSCL2 PREFETCH  REQUESTED:          0  ISSUED:          0  USEFUL:          0  USELESS:          0
PSCL2 USEFUL LOAD PREFETCHES:          0 PREFETCH ISSUED TO LOWER LEVEL:          0  ACCURACY: -nan
PSCL2 TIMELY PREFETCHES:          0 LATE PREFETCHES: 0 DROPPED PREFETCHES: 0
PSCL2 PREFETCHES SAME FILL-ORIGIN LEVEL: 0 DIFFERENT FILL-ORIGIN LEVEL: 0

LLC TOTAL     ACCESS:     994198  HIT:     742976  MISS:     251222  HIT %:    74.7312  MISS %:    25.2688   MPKI: 1.25611
LLC LOAD      ACCESS:     495153  HIT:     294380  MISS:     200773  HIT %:    59.4523  MISS %:    40.5477   MPKI: 1.00386
LLC RFO       ACCESS:      51318  HIT:      19716  MISS:      31602  HIT %:    38.4193  MISS %:    61.5807   MPKI: 0.15801
LLC PREFETCH  ACCESS:      17902  HIT:       7659  MISS:      10243  HIT %:    42.7829  MISS %:    57.2171   MPKI: 0.051215
LLC WRITEBACK ACCESS:     392588  HIT:     385093  MISS:       7495  HIT %:    98.0909  MISS %:    1.90913   MPKI: 0.037475
LLC LOAD TRANSLATION ACCESS:      37127  HIT:      36030  MISS:       1097  HIT %:    97.0453  MISS %:    2.95472   MPKI: 0.005485
LLC TRANSLATION FROM L1D PREFETCHER ACCESS:        110  HIT:         98  MISS:         12  HIT %:    89.0909  MISS %:    10.9091   MPKI: 6e-05
LLC PREFETCH  REQUESTED:          0  ISSUED:          0  USEFUL:       3249  USELESS:      34471
LLC USEFUL LOAD PREFETCHES:       3249 PREFETCH ISSUED TO LOWER LEVEL:      39704  ACCURACY: 8.18305
LLC TIMELY PREFETCHES:       3249 LATE PREFETCHES: 0 DROPPED PREFETCHES: 0
LLC PREFETCHES SAME FILL-ORIGIN LEVEL: 0 DIFFERENT FILL-ORIGIN LEVEL: 0
LLC AVERAGE MISS LATENCY: 729.699 cycles
LLC RQ	ACCESS:    2335802	FORWARD:          0	MERGED:          0	TO_CACHE:    2335796
LLC WQ	ACCESS:    1570447	FORWARD:          6	MERGED:          0	TO_CACHE:    1570447
LLC PQ	ACCESS:      72027	FORWARD:          0	MERGED:          0	TO_CACHE:      72027

LLC Dense regions hint to LLC: 0

RAW hits: 2638296
Loads Generated: 47326322
Loads sent to L1D: 44688026
Stores Generated: 17197911
Stores sent to L1D: 17197911
Major fault: 0 Minor fault: 8202
Allocated PAGES: 32808

CPU 1 cumulative IPC: 0.810166 instructions: 200000003 cycles: 246863092
ITLB TOTAL     ACCESS:   28618180  HIT:   28618180  MISS:          0  HIT %:        100  MISS %:          0   MPKI: 0
ITLB LOAD TRANSLATION ACCESS:   28618180  HIT:   28618180  MISS:          0  HIT %:        100  MISS %:          0   MPKI: 0
ITLB PREFETCH  REQUESTED:          0  ISSUED:          0  USEFUL:          0  USELESS:          0
ITLB USEFUL LOAD PREFETCHES:          0 PREFETCH ISSUED TO LOWER LEVEL:          0  ACCURACY: -nan
ITLB TIMELY PREFETCHES:          0 LATE PREFETCHES: 0 DROPPED PREFETCHES: 0
ITLB PREFETCHES SAME FILL-ORIGIN LEVEL: 0 DIFFERENT FILL-ORIGIN LEVEL: 0
ITLB AVERAGE MISS LATENCY: -nan cycles
ITLB RQ	ACCESS:   34166209	FORWARD:          0	MERGED:    5545356	TO_CACHE:   28620853

DTLB TOTAL     ACCESS:   37906864  HIT:   36986791  MISS:     920073  HIT %:    97.5728  MISS %:    2.42719   MPKI: 4.60036
DTLB LOAD TRANSLATION ACCESS:   37906864  HIT:   36986791  MISS:     920073  HIT %:    97.5728  MISS %:    2.42719   MPKI: 4.60036
DTLB PREFETCH  REQUESTED:          0  ISSUED:          0  USEFUL:          0  USELESS:          0
DTLB USEFUL LOAD PREFETCHES:          0 PREFETCH ISSUED TO LOWER LEVEL:          0  ACCURACY: -nan
DTLB TIMELY PREFETCHES:          0 LATE PREFETCHES: 0 DROPPED PREFETCHES: 0
DTLB PREFETCHES SAME FILL-ORIGIN LEVEL: 0 DIFFERENT FILL-ORIGIN LEVEL: 0
DTLB AVERAGE MISS LATENCY: 13.7464 cycles
DTLB RQ	ACCESS:   48090198	FORWARD:          0	MERGED:   10170484	TO_CACHE:   37919714

STLB TOTAL     ACCESS:    1234867  HIT:    1100581  MISS:     134286  HIT %:    89.1255  MISS %:    10.8745   MPKI: 0.67143
STLB LOAD TRANSLATION ACCESS:     920073  HIT:     785989  MISS:     134084  HIT %:    85.4268  MISS %:    14.5732   MPKI: 0.67042
STLB TRANSLATION FROM L1D PREFETCHER ACCESS:     314794  HIT:     314592  MISS:        202  HIT %:    99.9358  MISS %:  0.0641689   MPKI: 0.00101
STLB PREFETCH  REQUESTED:          0  ISSUED:          0  USEFUL:        163  USELESS:         39
STLB USEFUL LOAD PREFETCHES:        163 PREFETCH ISSUED TO LOWER LEVEL:          0  ACCURACY: inf
STLB TIMELY PREFETCHES:        163 LATE PREFETCHES: 10 DROPPED PREFETCHES: 1829
STLB PREFETCHES SAME FILL-ORIGIN LEVEL: 0 DIFFERENT FILL-ORIGIN LEVEL: 0
STLB AVERAGE MISS LATENCY: 32.4644 cycles
STLB RQ	ACCESS:    1712442	FORWARD:          0	MERGED:     475310	TO_CACHE:    1237132

STLB Hit, L1D data hit: 0
STLB Hit, L2C data hit: 0
STLB Hit, LLC data hit: 0
STLB Hit, LLC data miss: 0
STLB STLB hints to L2: 0
L1D TOTAL     ACCESS:   48558569  HIT:   47439084  MISS:    1119485  HIT %:    97.6946  MISS %:    2.30543   MPKI: 5.59742
L1D LOAD      ACCESS:   31020128  HIT:   30044516  MISS:     975612  HIT %:    96.8549  MISS %:    3.14509   MPKI: 4.87806
L1D RFO       ACCESS:   16901623  HIT:   16765427  MISS:     136196  HIT %:    99.1942  MISS %:   0.805816   MPKI: 0.68098
L1D PREFETCH  ACCESS:     636818  HIT:     629141  MISS:       7677  HIT %:    98.7945  MISS %:    1.20552   MPKI: 0.038385
L1D PREFETCH  REQUESTED:    1682401  ISSUED:    1682147  USEFUL:       6339  USELESS:       1338
L1D USEFUL LOAD PREFETCHES:       6339 PREFETCH ISSUED TO LOWER LEVEL:     125467  ACCURACY: 5.05232
L1D TIMELY PREFETCHES:       6339 LATE PREFETCHES: 114 DROPPED PREFETCHES: 5440
L1D PREFETCHES SAME FILL-ORIGIN LEVEL: 7797 DIFFERENT FILL-ORIGIN LEVEL: 117670
L1D AVERAGE MISS LATENCY: 67.2961 cycles
L1D RQ	ACCESS:   44692515	FORWARD:          0	MERGED:   13504920	TO_CACHE:   31127781
L1D WQ	ACCESS:   17199645	FORWARD:      59815	MERGED:     237228	TO_CACHE:   16962417
L1D PQ	ACCESS:     889834	FORWARD:          0	MERGED:      97520	TO_CACHE:     792313

L1D UNIQUE REGIONS ACCESSED: 0
L1D REGIONS CONFLICTS: 0
L1D Cross Page Prefetch Requests: 108590
L1D Same Page Prefetch Requests: 1087585
L1D ROI Sum of L1D PQ occupancy: 9528162
L1D PREFETCHES PUSHED FROM L2C: 0
L1I TOTAL     ACCESS:   34162787  HIT:   34162395  MISS:        392  HIT %:    99.9989  MISS %: 0.00114745   MPKI: 0.00196
L1I LOAD      ACCESS:   34162787  HIT:   34162395  MISS:        392  HIT %:    99.9989  MISS %: 0.00114745   MPKI: 0.00196
L1I PREFETCH  REQUESTED:          0  ISSUED:          0  USEFUL:          0  USELESS:          0
L1I USEFUL LOAD PREFETCHES:          0 PREFETCH ISSUED TO LOWER LEVEL:          0  ACCURACY: -nan
L1I TIMELY PREFETCHES:          0 LATE PREFETCHES: 0 DROPPED PREFETCHES: 0
L1I PREFETCHES SAME FILL-ORIGIN LEVEL: 0 DIFFERENT FILL-ORIGIN LEVEL: 0
L1I AVERAGE MISS LATENCY: 71.3673 cycles
L1I RQ	ACCESS:   50636637	FORWARD:          0	MERGED:   16470428	TO_CACHE:   34166209

BTB TOTAL     ACCESS:   23485771  HIT:   23238941  MISS:     246830  HIT %:     98.949  MISS %:    1.05098   MPKI: 1.23415
BTB BRANCH_DIRECT_JUMP	ACCESS:    2818451  HIT:    2818373  MISS:         78
BTB BRANCH_INDIRECT	ACCESS:     447403  HIT:     208958  MISS:     238445
BTB BRANCH_CONDITIONAL	ACCESS:   19634941  HIT:   19634694  MISS:        247
BTB BRANCH_DIRECT_CALL	ACCESS:     190457  HIT:     190438  MISS:         19
BTB BRANCH_INDIRECT_CALL	ACCESS:     102031  HIT:     102024  MISS:          7
BTB BRANCH_RETURN	ACCESS:     292488  HIT:     284454  MISS:       8034
BTB BRANCH_OTHER ACCESS:          0  HIT:          0  MISS:          0

L2C TOTAL     ACCESS:    2126439  HIT:    1496832  MISS:     629607  HIT %:    70.3915  MISS %:    29.6085   MPKI: 3.14803
L2C LOAD      ACCESS:     975880  HIT:     483987  MISS:     491893  HIT %:    49.5949  MISS %:    50.4051   MPKI: 2.45946
L2C DATA LOAD MPKI: 2.45767
L2C INSTRUCTION LOAD MPKI: 0.00179
L2C RFO       ACCESS:     136167  HIT:      84923  MISS:      51244  HIT %:    62.3668  MISS %:    37.6332   MPKI: 0.25622
L2C PREFETCH  ACCESS:     119372  HIT:     101471  MISS:      17901  HIT %:     85.004  MISS %:     14.996   MPKI: 0.089505
L2C DATA PREFETCH MPKI: 0.089505
L2C INSTRUCTION PREFETCH MPKI: 0
L2C WRITEBACK ACCESS:     758805  HIT:     727453  MISS:      31352  HIT %:    95.8682  MISS %:    4.13176   MPKI: 0.15676
L2C LOAD TRANSLATION ACCESS:     134166  HIT:      97045  MISS:      37121  HIT %:     72.332  MISS %:     27.668   MPKI: 0.185605
L2C TRANSLATION FROM L1D PREFETCHER ACCESS:       2049  HIT:       1953  MISS:         96  HIT %:    95.3148  MISS %:    4.68521   MPKI: 0.00048
L2C PREFETCH  REQUESTED:          0  ISSUED:          0  USEFUL:       4841  USELESS:      12957
L2C USEFUL LOAD PREFETCHES:       4841 PREFETCH ISSUED TO LOWER LEVEL:      17975  ACCURACY: 26.9318
L2C TIMELY PREFETCHES:       4841 LATE PREFETCHES: 74 DROPPED PREFETCHES: 0
L2C PREFETCHES SAME FILL-ORIGIN LEVEL: 13147 DIFFERENT FILL-ORIGIN LEVEL: 0
L2C AVERAGE MISS LATENCY: 101.569 cycles
L2C RQ	ACCESS:    1248392	FORWARD:          0	MERGED:          0	TO_CACHE:    1248359
L2C WQ	ACCESS:     758873	FORWARD:         33	MERGED:          0	TO_CACHE:     758873
L2C PQ	ACCESS:     125464	FORWARD:          0	MERGED:        141	TO_CACHE:     125323

L2C Instructions Evicting Data 331
L2C Translations Evicting Data 34748
L2C Data Evicting Data 527310
L2C Instructions Evicting Instructions 1
L2C Translations Evicting Instructions 30
L2C Data Evicting Instructions 306
L2C Instructions Evicting Translations 26
L2C Translations Evicting Translations 2440
L2C Data Evicting Translations 33088
L2C Dense regions hint from L2: 0
PSCL5 TOTAL     ACCESS:     136125  HIT:     136125  MISS:          0  HIT %:        100  MISS %:          0   MPKI: 0
PSCL5 LOAD TRANSLATION ACCESS:     134084  HIT:     134084  MISS:          0  HIT %:        100  MISS %:          0   MPKI: 0
PSCL5 TRANSLATION FROM L1D PREFETCHER ACCESS:       2041  HIT:       2041  MISS:          0  HIT %:        100  MISS %:          0   MPKI: 0
PSCL5 PREFETCH  REQUESTED:          0  ISSUED:          0  USEFUL:          0  USELESS:          0
PSCL5 USEFUL LOAD PREFETCHES:          0 PREFETCH ISSUED TO LOWER LEVEL:          0  ACCURACY: -nan
PSCL5 TIMELY PREFETCHES:          0 LATE PREFETCHES: 0 DROPPED PREFETCHES: 0
PSCL5 PREFETCHES SAME FILL-ORIGIN LEVEL: 0 DIFFERENT FILL-ORIGIN LEVEL: 0

PSCL4 TOTAL     ACCESS:     136125  HIT:     136125  MISS:          0  HIT %:        100  MISS %:          0   MPKI: 0
PSCL4 LOAD TRANSLATION ACCESS:     134084  HIT:     134084  MISS:          0  HIT %:        100  MISS %:          0   MPKI: 0
PSCL4 TRANSLATION FROM L1D PREFETCHER ACCESS:       2041  HIT:       2041  MISS:          0  HIT %:        100  MISS %:          0   MPKI: 0
PSCL4 PREFETCH  REQUESTED:          0  ISSUED:          0  USEFUL:          0  USELESS:          0
PSCL4 USEFUL LOAD PREFETCHES:          0 PREFETCH ISSUED TO LOWER LEVEL:          0  ACCURACY: -nan
PSCL4 TIMELY PREFETCHES:          0 LATE PREFETCHES: 0 DROPPED PREFETCHES: 0
PSCL4 PREFETCHES SAME FILL-ORIGIN LEVEL: 0 DIFFERENT FILL-ORIGIN LEVEL: 0

PSCL3 TOTAL     ACCESS:     136125  HIT:     136125  MISS:          0  HIT %:        100  MISS %:          0   MPKI: 0
PSCL3 LOAD TRANSLATION ACCESS:     134084  HIT:     134084  MISS:          0  HIT %:        100  MISS %:          0   MPKI: 0
PSCL3 TRANSLATION FROM L1D PREFETCHER ACCESS:       2041  HIT:       2041  MISS:          0  HIT %:        100  MISS %:          0   MPKI: 0
PSCL3 PREFETCH  REQUESTED:          0  ISSUED:          0  USEFUL:          0  USELESS:          0
PSCL3 USEFUL LOAD PREFETCHES:          0 PREFETCH ISSUED TO LOWER LEVEL:          0  ACCURACY: -nan
PSCL3 TIMELY PREFETCHES:          0 LATE PREFETCHES: 0 DROPPED PREFETCHES: 0
PSCL3 PREFETCHES SAME FILL-ORIGIN LEVEL: 0 DIFFERENT FILL-ORIGIN LEVEL: 0

PSCL2 TOTAL     ACCESS:     136123  HIT:     136035  MISS:         88  HIT %:    99.9354  MISS %:  0.0646474   MPKI: 0.00044
PSCL2 LOAD TRANSLATION ACCESS:     134090  HIT:     134002  MISS:         88  HIT %:    99.9344  MISS %:  0.0656276   MPKI: 0.00044
PSCL2 TRANSLATION FROM L1D PREFETCHER ACCESS:       2033  HIT:       2033  MISS:          0  HIT %:        100  MISS %:          0   MPKI: 0
PSCL2 PREFETCH  REQUESTED:          0  ISSUED:          0  USEFUL:          0  USELESS:          0
PSCL2 USEFUL LOAD PREFETCHES:          0 PREFETCH ISSUED TO LOWER LEVEL:          0  ACCURACY: -nan
PSCL2 TIMELY PREFETCHES:          0 LATE PREFETCHES: 0 DROPPED PREFETCHES: 0
PSCL2 PREFETCHES SAME FILL-ORIGIN LEVEL: 0 DIFFERENT FILL-ORIGIN LEVEL: 0

LLC TOTAL     ACCESS:     988257  HIT:     736947  MISS:     251310  HIT %:    74.5704  MISS %:    25.4296   MPKI: 1.25655
LLC LOAD      ACCESS:     491836  HIT:     290557  MISS:     201279  HIT %:     59.076  MISS %:     40.924   MPKI: 1.00639
LLC RFO       ACCESS:      51225  HIT:      19506  MISS:      31719  HIT %:    38.0791  MISS %:    61.9209   MPKI: 0.158595
LLC PREFETCH  ACCESS:      17975  HIT:       8053  MISS:       9922  HIT %:    44.8011  MISS %:    55.1989   MPKI: 0.04961
LLC WRITEBACK ACCESS:     390004  HIT:     382897  MISS:       7107  HIT %:    98.1777  MISS %:    1.82229   MPKI: 0.035535
LLC LOAD TRANSLATION ACCESS:      37121  HIT:      35848  MISS:       1273  HIT %:    96.5707  MISS %:    3.42933   MPKI: 0.006365
LLC TRANSLATION FROM L1D PREFETCHER ACCESS:         96  HIT:         86  MISS:         10  HIT %:    89.5833  MISS %:    10.4167   MPKI: 5e-05
LLC PREFETCH  REQUESTED:          0  ISSUED:          0  USEFUL:       3249  USELESS:      34471
LLC USEFUL LOAD PREFETCHES:       3249 PREFETCH ISSUED TO LOWER LEVEL:      39704  ACCURACY: 8.18305
LLC TIMELY PREFETCHES:       3249 LATE PREFETCHES: 0 DROPPED PREFETCHES: 0
LLC PREFETCHES SAME FILL-ORIGIN LEVEL: 0 DIFFERENT FILL-ORIGIN LEVEL: 0
LLC AVERAGE MISS LATENCY: 729.444 cycles
LLC RQ	ACCESS:    2335802	FORWARD:          0	MERGED:          0	TO_CACHE:    2335796
LLC WQ	ACCESS:    1570447	FORWARD:          6	MERGED:          0	TO_CACHE:    1570447
LLC PQ	ACCESS:      72027	FORWARD:          0	MERGED:          0	TO_CACHE:      72027

LLC Dense regions hint to LLC: 0

RAW hits: 2638258
Loads Generated: 47326320
Loads sent to L1D: 44688061
Stores Generated: 17197911
Stores sent to L1D: 17197910
Major fault: 0 Minor fault: 8202
Allocated PAGES: 32808

CPU 2 cumulative IPC: 0.810098 instructions: 200000002 cycles: 246883761
ITLB TOTAL     ACCESS:   28617844  HIT:   28617844  MISS:          0  HIT %:        100  MISS %:          0   MPKI: 0
ITLB LOAD TRANSLATION ACCESS:   28617844  HIT:   28617844  MISS:          0  HIT %:        100  MISS %:          0   MPKI: 0
ITLB PREFETCH  REQUESTED:          0  ISSUED:          0  USEFUL:          0  USELESS:          0
ITLB USEFUL LOAD PREFETCHES:          0 PREFETCH ISSUED TO LOWER LEVEL:          0  ACCURACY: -nan
ITLB TIMELY PREFETCHES:          0 LATE PREFETCHES: 0 DROPPED PREFETCHES: 0
ITLB PREFETCHES SAME FILL-ORIGIN LEVEL: 0 DIFFERENT FILL-ORIGIN LEVEL: 0
ITLB AVERAGE MISS LATENCY: -nan cycles
ITLB RQ	ACCESS:   34162757	FORWARD:          0	MERGED:    5544914	TO_CACHE:   28617843

DTLB TOTAL     ACCESS:   37906499  HIT:   36986432  MISS:     920067  HIT %:    97.5728  MISS %:     2.4272   MPKI: 4.60033
DTLB LOAD TRANSLATION ACCESS:   37906499  HIT:   36986432  MISS:     920067  HIT %:    97.5728  MISS %:     2.4272   MPKI: 4.60033
DTLB PREFETCH  REQUESTED:          0  ISSUED:          0  USEFUL:          0  USELESS:          0
DTLB USEFUL LOAD PREFETCHES:          0 PREFETCH ISSUED TO LOWER LEVEL:          0  ACCURACY: -nan
DTLB TIMELY PREFETCHES:          0 LATE PREFETCHES: 0 DROPPED PREFETCHES: 0
DTLB PREFETCHES SAME FILL-ORIGIN LEVEL: 0 DIFFERENT FILL-ORIGIN LEVEL: 0
DTLB AVERAGE MISS LATENCY: 13.7413 cycles
DTLB RQ	ACCESS:   48084558	FORWARD:          0	MERGED:   10169151	TO_CACHE:   37915407

STLB TOTAL     ACCESS:    1244291  HIT:    1110021  MISS:     134270  HIT %:    89.2091  MISS %:    10.7909   MPKI: 0.67135
STLB LOAD TRANSLATION ACCESS:     920067  HIT:     785983  MISS:     134084  HIT %:    85.4267  MISS %:    14.5733   MPKI: 0.67042
STLB TRANSLATION FROM L1D PREFETCHER ACCESS:     324224  HIT:     324038  MISS:        186  HIT %:    99.9426  MISS %:  0.0573677   MPKI: 0.00093
STLB PREFETCH  REQUESTED:          0  ISSUED:          0  USEFUL:        147  USELESS:         39
STLB USEFUL LOAD PREFETCHES:        147 PREFETCH ISSUED TO LOWER LEVEL:          0  ACCURACY: inf
STLB TIMELY PREFETCHES:        147 LATE PREFETCHES: 10 DROPPED PREFETCHES: 1662
STLB PREFETCHES SAME FILL-ORIGIN LEVEL: 0 DIFFERENT FILL-ORIGIN LEVEL: 0
STLB AVERAGE MISS LATENCY: 32.4423 cycles
STLB RQ	ACCESS:    1724606	FORWARD:          0	MERGED:     478372	TO_CACHE:    1246234

STLB Hit, L1D data hit: 0
STLB Hit, L2C data hit: 0
STLB Hit, LLC data hit: 0
STLB Hit, LLC data miss: 0
STLB STLB hints to L2: 0
L1D TOTAL     ACCESS:   48553846  HIT:   47434423  MISS:    1119423  HIT %:    97.6945  MISS %:    2.30553   MPKI: 5.59711
L1D LOAD      ACCESS:   31019123  HIT:   30043331  MISS:     975792  HIT %:    96.8542  MISS %:    3.14578   MPKI: 4.87896
L1D RFO       ACCESS:   16901778  HIT:   16765557  MISS:     136221  HIT %:     99.194  MISS %:   0.805957   MPKI: 0.681105
L1D PREFETCH  ACCESS:     632945  HIT:     625535  MISS:       7410  HIT %:    98.8293  MISS %:    1.17072   MPKI: 0.03705
L1D PREFETCH  REQUESTED:    1703552  ISSUED:    1703248  USEFUL:       6098  USELESS:       1312
L1D USEFUL LOAD PREFETCHES:       6098 PREFETCH ISSUED TO LOWER LEVEL:     132510  ACCURACY: 4.60192
L1D TIMELY PREFETCHES:       6098 LATE PREFETCHES: 208 DROPPED PREFETCHES: 4940
L1D PREFETCHES SAME FILL-ORIGIN LEVEL: 7624 DIFFERENT FILL-ORIGIN LEVEL: 124886
L1D AVERAGE MISS LATENCY: 67.0663 cycles
L1D RQ	ACCESS:   44687829	FORWARD:          0	MERGED:   13503988	TO_CACHE:   31123871
L1D WQ	ACCESS:   17197841	FORWARD:      59970	MERGED:     237154	TO_CACHE:   16960687
L1D PQ	ACCESS:     898709	FORWARD:          0	MERGED:      94170	TO_CACHE:     804539

L1D UNIQUE REGIONS ACCESSED: 0
L1D REGIONS CONFLICTS: 0
L1D Cross Page Prefetch Requests: 103865
L1D Same Page Prefetch Requests: 1102699
L1D ROI Sum of L1D PQ occupancy: 9644900
L1D PREFETCHES PUSHED FROM L2C: 0
L1I TOTAL     ACCESS:   34162552  HIT:   34162160  MISS:        392  HIT %:    99.9989  MISS %: 0.00114746   MPKI: 0.00196
L1I LOAD      ACCESS:   34162552  HIT:   34162160  MISS:        392  HIT %:    99.9989  MISS %: 0.00114746   MPKI: 0.00196
L1I PREFETCH  REQUESTED:          0  ISSUED:          0  USEFUL:          0  USELESS:          0
L1I USEFUL LOAD PREFETCHES:          0 PREFETCH ISSUED TO LOWER LEVEL:          0  ACCURACY: -nan
L1I TIMELY PREFETCHES:          0 LATE PREFETCHES: 0 DROPPED PREFETCHES: 0
L1I PREFETCHES SAME FILL-ORIGIN LEVEL: 0 DIFFERENT FILL-ORIGIN LEVEL: 0
L1I AVERAGE MISS LATENCY: 64.148 cycles
L1I RQ	ACCESS:   50631975	FORWARD:          0	MERGED:   16469218	TO_CACHE:   34162757

BTB TOTAL     ACCESS:   23485732  HIT:   23238902  MISS:     246830  HIT %:     98.949  MISS %:    1.05098   MPKI: 1.23415
BTB BRANCH_DIRECT_JUMP	ACCESS:    2818431  HIT:    2818353  MISS:         78
BTB BRANCH_INDIRECT	ACCESS:     447403  HIT:     208958  MISS:     238445
BTB BRANCH_CONDITIONAL	ACCESS:   19634924  HIT:   19634677  MISS:        247
BTB BRANCH_DIRECT_CALL	ACCESS:     190457  HIT:     190438  MISS:         19
BTB BRANCH_INDIRECT_CALL	ACCESS:     102031  HIT:     102024  MISS:          7
BTB BRANCH_RETURN	ACCESS:     292486  HIT:     284452  MISS:       8034
BTB BRANCH_OTHER ACCESS:          0  HIT:          0  MISS:          0

L2C TOTAL     ACCESS:    2132763  HIT:    1495659  MISS:     637104  HIT %:    70.1278  MISS %:    29.8722   MPKI: 3.18552
L2C LOAD      ACCESS:     975966  HIT:     479368  MISS:     496598  HIT %:    49.1173  MISS %:    50.8827   MPKI: 2.48299
L2C DATA LOAD MPKI: 2.48111
L2C INSTRUCTION LOAD MPKI: 0.001875
L2C RFO       ACCESS:     136191  HIT:      84342  MISS:      51849  HIT %:    61.9292  MISS %:    38.0708   MPKI: 0.259245
L2C PREFETCH  ACCESS:     125738  HIT:     107629  MISS:      18109  HIT %:    85.5978  MISS %:    14.4022   MPKI: 0.090545
L2C DATA PREFETCH MPKI: 0.090545
L2C INSTRUCTION PREFETCH MPKI: 0
L2C WRITEBACK ACCESS:     758818  HIT:     725743  MISS:      33075  HIT %:    95.6412  MISS %:    4.35875   MPKI: 0.165375
L2C LOAD TRANSLATION ACCESS:     134184  HIT:      96798  MISS:      37386  HIT %:    72.1383  MISS %:    27.8617   MPKI: 0.18693
L2C TRANSLATION FROM L1D PREFETCHER ACCESS:       1866  HIT:       1779  MISS:         87  HIT %:    95.3376  MISS %:    4.66238   MPKI: 0.000435
L2C PREFETCH  REQUESTED:          0  ISSUED:          0  USEFUL:       5204  USELESS:      12773
L2C USEFUL LOAD PREFETCHES:       5204 PREFETCH ISSUED TO LOWER LEVEL:      18201  ACCURACY: 28.5918
L2C TIMELY PREFETCHES:       5204 LATE PREFETCHES: 92 DROPPED PREFETCHES: 0
L2C PREFETCHES SAME FILL-ORIGIN LEVEL: 13522 DIFFERENT FILL-ORIGIN LEVEL: 0
L2C AVERAGE MISS LATENCY: 100.274 cycles
L2C RQ	ACCESS:    1248242	FORWARD:          0	MERGED:          0	TO_CACHE:    1248208
L2C WQ	ACCESS:     758819	FORWARD:         34	MERGED:          0	TO_CACHE:     758819
L2C PQ	ACCESS:     132496	FORWARD:          0	MERGED:        132	TO_CACHE:     132364

L2C Instructions Evicting Data 350
L2C Translations Evicting Data 35249
L2C Data Evicting Data 532358
L2C Instructions Evicting Instructions 5
L2C Translations Evicting Instructions 20
L2C Data Evicting Instructions 318
L2C Instructions Evicting Translations 20
L2C Translations Evicting Translations 2204
L2C Data Evicting Translations 33505
L2C Dense regions hint from L2: 0
PSCL5 TOTAL     ACCESS:     135942  HIT:     135942  MISS:          0  HIT %:        100  MISS %:          0   MPKI: 0
PSCL5 LOAD TRANSLATION ACCESS:     134084  HIT:     134084  MISS:          0  HIT %:        100  MISS %:          0   MPKI: 0
PSCL5 TRANSLATION FROM L1D PREFETCHER ACCESS:       1858  HIT:       1858  MISS:          0  HIT %:        100  MISS %:          0   MPKI: 0
PSCL5 PREFETCH  REQUESTED:          0  ISSUED:          0  USEFUL:          0  USELESS:          0
PSCL5 USEFUL LOAD PREFETCHES:          0 PREFETCH ISSUED TO LOWER LEVEL:          0  ACCURACY: -nan
PSCL5 TIMELY PREFETCHES:          0 LATE PREFETCHES: 0 DROPPED PREFETCHES: 0
PSCL5 PREFETCHES SAME FILL-ORIGIN LEVEL: 0 DIFFERENT FILL-ORIGIN LEVEL: 0

PSCL4 TOTAL     ACCESS:     135942  HIT:     135942  MISS:          0  HIT %:        100  MISS %:          0   MPKI: 0
PSCL4 LOAD TRANSLATION ACCESS:     134084  HIT:     134084  MISS:          0  HIT %:        100  MISS %:          0   MPKI: 0
PSCL4 TRANSLATION FROM L1D PREFETCHER ACCESS:       1858  HIT:       1858  MISS:          0  HIT %:        100  MISS %:          0   MPKI: 0
PSCL4 PREFETCH  REQUESTED:          0  ISSUED:          0  USEFUL:          0  USELESS:          0
PSCL4 USEFUL LOAD PREFETCHES:          0 PREFETCH ISSUED TO LOWER LEVEL:          0  ACCURACY: -nan
PSCL4 TIMELY PREFETCHES:          0 LATE PREFETCHES: 0 DROPPED PREFETCHES: 0
PSCL4 PREFETCHES SAME FILL-ORIGIN LEVEL: 0 DIFFERENT FILL-ORIGIN LEVEL: 0

PSCL3 TOTAL     ACCESS:     135942  HIT:     135942  MISS:          0  HIT %:        100  MISS %:          0   MPKI: 0
PSCL3 LOAD TRANSLATION ACCESS:     134084  HIT:     134084  MISS:          0  HIT %:        100  MISS %:          0   MPKI: 0
PSCL3 TRANSLATION FROM L1D PREFETCHER ACCESS:       1858  HIT:       1858  MISS:          0  HIT %:        100  MISS %:          0   MPKI: 0
PSCL3 PREFETCH  REQUESTED:          0  ISSUED:          0  USEFUL:          0  USELESS:          0
PSCL3 USEFUL LOAD PREFETCHES:          0 PREFETCH ISSUED TO LOWER LEVEL:          0  ACCURACY: -nan
PSCL3 TIMELY PREFETCHES:          0 LATE PREFETCHES: 0 DROPPED PREFETCHES: 0
PSCL3 PREFETCHES SAME FILL-ORIGIN LEVEL: 0 DIFFERENT FILL-ORIGIN LEVEL: 0

PSCL2 TOTAL     ACCESS:     135941  HIT:     135834  MISS:        107  HIT %:    99.9213  MISS %:  0.0787106   MPKI: 0.000535
PSCL2 LOAD TRANSLATION ACCESS:     134091  HIT:     133984  MISS:        107  HIT %:    99.9202  MISS %:  0.0797966   MPKI: 0.000535
PSCL2 TRANSLATION FROM L1D PREFETCHER ACCESS:       1850  HIT:       1850  MISS:          0  HIT %:        100  MISS %:          0   MPKI: 0
PSCL2 PREFETCH  REQUESTED:          0  ISSUED:          0  USEFUL:          0  USELESS:          0
PSCL2 USEFUL LOAD PREFETCHES:          0 PREFETCH ISSUED TO LOWER LEVEL:          0  ACCURACY: -nan
PSCL2 TIMELY PREFETCHES:          0 LATE PREFETCHES: 0 DROPPED PREFETCHES: 0
PSCL2 PREFETCHES SAME FILL-ORIGIN LEVEL: 0 DIFFERENT FILL-ORIGIN LEVEL: 0

LLC TOTAL     ACCESS:     998671  HIT:     747463  MISS:     251208  HIT %:    74.8458  MISS %:    25.1542   MPKI: 1.25604
LLC LOAD      ACCESS:     496522  HIT:     295557  MISS:     200965  HIT %:    59.5255  MISS %:    40.4745   MPKI: 1.00482
LLC RFO       ACCESS:      51831  HIT:      20245  MISS:      31586  HIT %:    39.0596  MISS %:    60.9404   MPKI: 0.15793
LLC PREFETCH  ACCESS:      18201  HIT:       8172  MISS:      10029  HIT %:    44.8986  MISS %:    55.1014   MPKI: 0.050145
LLC WRITEBACK ACCESS:     394644  HIT:     387294  MISS:       7350  HIT %:    98.1376  MISS %:    1.86244   MPKI: 0.03675
LLC LOAD TRANSLATION ACCESS:      37386  HIT:      36124  MISS:       1262  HIT %:    96.6244  MISS %:     3.3756   MPKI: 0.00631
LLC TRANSLATION FROM L1D PREFETCHER ACCESS:         87  HIT:         71  MISS:         16  HIT %:    81.6092  MISS %:    18.3908   MPKI: 8e-05
LLC PREFETCH  REQUESTED:          0  ISSUED:          0  USEFUL:       3249  USELESS:      34471
LLC USEFUL LOAD PREFETCHES:       3249 PREFETCH ISSUED TO LOWER LEVEL:      39704  ACCURACY: 8.18305
LLC TIMELY PREFETCHES:       3249 LATE PREFETCHES: 0 DROPPED PREFETCHES: 0
LLC PREFETCHES SAME FILL-ORIGIN LEVEL: 0 DIFFERENT FILL-ORIGIN LEVEL: 0
LLC AVERAGE MISS LATENCY: 729.74 cycles
LLC RQ	ACCESS:    2335802	FORWARD:          0	MERGED:          0	TO_CACHE:    2335796
LLC WQ	ACCESS:    1570447	FORWARD:          6	MERGED:          0	TO_CACHE:    1570447
LLC PQ	ACCESS:      72027	FORWARD:          0	MERGED:          0	TO_CACHE:      72027

LLC Dense regions hint to LLC: 0

RAW hits: 2638376
Loads Generated: 47326205
Loads sent to L1D: 44687829
Stores Generated: 17197841
Stores sent to L1D: 17197841
Major fault: 0 Minor fault: 8202
Allocated PAGES: 32808

CPU 3 cumulative IPC: 0.810127 instructions: 200000003 cycles: 246874749
ITLB TOTAL     ACCESS:   28618264  HIT:   28618264  MISS:          0  HIT %:        100  MISS %:          0   MPKI: 0
ITLB LOAD TRANSLATION ACCESS:   28618264  HIT:   28618264  MISS:          0  HIT %:        100  MISS %:          0   MPKI: 0
ITLB PREFETCH  REQUESTED:          0  ISSUED:          0  USEFUL:          0  USELESS:          0
ITLB USEFUL LOAD PREFETCHES:          0 PREFETCH ISSUED TO LOWER LEVEL:          0  ACCURACY: -nan
ITLB TIMELY PREFETCHES:          0 LATE PREFETCHES: 0 DROPPED PREFETCHES: 0
ITLB PREFETCHES SAME FILL-ORIGIN LEVEL: 0 DIFFERENT FILL-ORIGIN LEVEL: 0
ITLB AVERAGE MISS LATENCY: -nan cycles
ITLB RQ	ACCESS:   34164499	FORWARD:          0	MERGED:    5545037	TO_CACHE:   28619462

DTLB TOTAL     ACCESS:   37905189  HIT:   36985103  MISS:     920086  HIT %:    97.5727  MISS %:    2.42734   MPKI: 4.60043
DTLB LOAD TRANSLATION ACCESS:   37905189  HIT:   36985103  MISS:     920086  HIT %:    97.5727  MISS %:    2.42734   MPKI: 4.60043
DTLB PREFETCH  REQUESTED:          0  ISSUED:          0  USEFUL:          0  USELESS:          0
DTLB USEFUL LOAD PREFETCHES:          0 PREFETCH ISSUED TO LOWER LEVEL:          0  ACCURACY: -nan
DTLB TIMELY PREFETCHES:          0 LATE PREFETCHES: 0 DROPPED PREFETCHES: 0
DTLB PREFETCHES SAME FILL-ORIGIN LEVEL: 0 DIFFERENT FILL-ORIGIN LEVEL: 0
DTLB AVERAGE MISS LATENCY: 13.7972 cycles
DTLB RQ	ACCESS:   48085857	FORWARD:          0	MERGED:   10169919	TO_CACHE:   37915938

STLB TOTAL     ACCESS:    1231352  HIT:    1097070  MISS:     134282  HIT %:    89.0948  MISS %:    10.9052   MPKI: 0.67141
STLB LOAD TRANSLATION ACCESS:     920086  HIT:     785999  MISS:     134087  HIT %:    85.4267  MISS %:    14.5733   MPKI: 0.670435
STLB TRANSLATION FROM L1D PREFETCHER ACCESS:     311266  HIT:     311071  MISS:        195  HIT %:    99.9374  MISS %:  0.0626474   MPKI: 0.000975
STLB PREFETCH  REQUESTED:          0  ISSUED:          0  USEFUL:        157  USELESS:         38
STLB USEFUL LOAD PREFETCHES:        157 PREFETCH ISSUED TO LOWER LEVEL:          0  ACCURACY: inf
STLB TIMELY PREFETCHES:        157 LATE PREFETCHES: 9 DROPPED PREFETCHES: 1757
STLB PREFETCHES SAME FILL-ORIGIN LEVEL: 0 DIFFERENT FILL-ORIGIN LEVEL: 0
STLB AVERAGE MISS LATENCY: 32.8226 cycles
STLB RQ	ACCESS:    1707191	FORWARD:          0	MERGED:     473726	TO_CACHE:    1233465

STLB Hit, L1D data hit: 0
STLB Hit, L2C data hit: 0
STLB Hit, LLC data hit: 0
STLB Hit, LLC data miss: 0
STLB STLB hints to L2: 0
L1D TOTAL     ACCESS:   48554373  HIT:   47435075  MISS:    1119298  HIT %:    97.6948  MISS %:    2.30525   MPKI: 5.59649
L1D LOAD      ACCESS:   31018399  HIT:   30042807  MISS:     975592  HIT %:    96.8548  MISS %:     3.1452   MPKI: 4.87796
L1D RFO       ACCESS:   16901439  HIT:   16765185  MISS:     136254  HIT %:    99.1938  MISS %:   0.806168   MPKI: 0.68127
L1D PREFETCH  ACCESS:     634535  HIT:     627083  MISS:       7452  HIT %:    98.8256  MISS %:     1.1744   MPKI: 0.03726
L1D PREFETCH  REQUESTED:    1670360  ISSUED:    1670268  USEFUL:       6285  USELESS:       1167
L1D USEFUL LOAD PREFETCHES:       6285 PREFETCH ISSUED TO LOWER LEVEL:     130074  ACCURACY: 4.83186
L1D TIMELY PREFETCHES:       6285 LATE PREFETCHES: 97 DROPPED PREFETCHES: 5479
L1D PREFETCHES SAME FILL-ORIGIN LEVEL: 7553 DIFFERENT FILL-ORIGIN LEVEL: 122521
L1D AVERAGE MISS LATENCY: 67.137 cycles
L1D RQ	ACCESS:   44689606	FORWARD:          0	MERGED:   13505171	TO_CACHE:   31124521
L1D WQ	ACCESS:   17198598	FORWARD:      59914	MERGED:     237262	TO_CACHE:   16961336
L1D PQ	ACCESS:     883199	FORWARD:          0	MERGED:      96130	TO_CACHE:     787069

L1D UNIQUE REGIONS ACCESSED: 0
L1D REGIONS CONFLICTS: 0
L1D Cross Page Prefetch Requests: 106860
L1D Same Page Prefetch Requests: 1086069
L1D ROI Sum of L1D PQ occupancy: 9461062
L1D PREFETCHES PUSHED FROM L2C: 0
L1I TOTAL     ACCESS:   34162840  HIT:   34162448  MISS:        392  HIT %:    99.9989  MISS %: 0.00114745   MPKI: 0.00196
L1I LOAD      ACCESS:   34162840  HIT:   34162448  MISS:        392  HIT %:    99.9989  MISS %: 0.00114745   MPKI: 0.00196
L1I PREFETCH  REQUESTED:          0  ISSUED:          0  USEFUL:          0  USELESS:          0
L1I USEFUL LOAD PREFETCHES:          0 PREFETCH ISSUED TO LOWER LEVEL:          0  ACCURACY: -nan
L1I TIMELY PREFETCHES:          0 LATE PREFETCHES: 0 DROPPED PREFETCHES: 0
L1I PREFETCHES SAME FILL-ORIGIN LEVEL: 0 DIFFERENT FILL-ORIGIN LEVEL: 0
L1I AVERAGE MISS LATENCY: 64.5638 cycles
L1I RQ	ACCESS:   50634644	FORWARD:          0	MERGED:   16470145	TO_CACHE:   34164499

BTB TOTAL     ACCESS:   23485707  HIT:   23238875  MISS:     246832  HIT %:     98.949  MISS %:    1.05099   MPKI: 1.23416
BTB BRANCH_DIRECT_JUMP	ACCESS:    2818426  HIT:    2818348  MISS:         78
BTB BRANCH_INDIRECT	ACCESS:     447403  HIT:     208958  MISS:     238445
BTB BRANCH_CONDITIONAL	ACCESS:   19634904  HIT:   19634655  MISS:        249
BTB BRANCH_DIRECT_CALL	ACCESS:     190457  HIT:     190438  MISS:         19
BTB BRANCH_INDIRECT_CALL	ACCESS:     102031  HIT:     102024  MISS:          7
BTB BRANCH_RETURN	ACCESS:     292486  HIT:     284452  MISS:       8034
BTB BRANCH_OTHER ACCESS:          0  HIT:          0  MISS:          0

L2C TOTAL     ACCESS:    2131756  HIT:    1495921  MISS:     635835  HIT %:    70.1732  MISS %:    29.8268   MPKI: 3.17917
L2C LOAD      ACCESS:     975879  HIT:     480212  MISS:     495667  HIT %:    49.2081  MISS %:    50.7919   MPKI: 2.47833
L2C DATA LOAD MPKI: 2.47649
L2C INSTRUCTION LOAD MPKI: 0.001845
L2C RFO       ACCESS:     136226  HIT:      84354  MISS:      51872  HIT %:    61.9221  MISS %:    38.0779   MPKI: 0.25936
L2C PREFETCH  ACCESS:     124718  HIT:     106863  MISS:      17855  HIT %:    85.6837  MISS %:    14.3163   MPKI: 0.089275
L2C DATA PREFETCH MPKI: 0.089275
L2C INSTRUCTION PREFETCH MPKI: 0
L2C WRITEBACK ACCESS:     758777  HIT:     726792  MISS:      31985  HIT %:    95.7847  MISS %:    4.21534   MPKI: 0.159925
L2C LOAD TRANSLATION ACCESS:     134186  HIT:      95821  MISS:      38365  HIT %:    71.4091  MISS %:    28.5909   MPKI: 0.191825
L2C TRANSLATION FROM L1D PREFETCHER ACCESS:       1970  HIT:       1879  MISS:         91  HIT %:    95.3807  MISS %:    4.61929   MPKI: 0.000455
L2C PREFETCH  REQUESTED:          0  ISSUED:          0  USEFUL:       4856  USELESS:      12910
L2C USEFUL LOAD PREFETCHES:       4856 PREFETCH ISSUED TO LOWER LEVEL:      17949  ACCURACY: 27.0544
L2C TIMELY PREFETCHES:       4856 LATE PREFETCHES: 94 DROPPED PREFETCHES: 0
L2C PREFETCHES SAME FILL-ORIGIN LEVEL: 13184 DIFFERENT FILL-ORIGIN LEVEL: 0
L2C AVERAGE MISS LATENCY: 100.257 cycles
L2C RQ	ACCESS:    1248359	FORWARD:          0	MERGED:          0	TO_CACHE:    1248327
L2C WQ	ACCESS:     758817	FORWARD:         32	MERGED:          0	TO_CACHE:     758817
L2C PQ	ACCESS:     130068	FORWARD:          0	MERGED:        127	TO_CACHE:     129941

L2C Instructions Evicting Data 341
L2C Translations Evicting Data 35593
L2C Data Evicting Data 530885
L2C Instructions Evicting Instructions 5
L2C Translations Evicting Instructions 36
L2C Data Evicting Instructions 288
L2C Instructions Evicting Translations 23
L2C Translations Evicting Translations 2828
L2C Data Evicting Translations 33870
L2C Dense regions hint from L2: 0
PSCL5 TOTAL     ACCESS:     136048  HIT:     136048  MISS:          0  HIT %:        100  MISS %:          0   MPKI: 0
PSCL5 LOAD TRANSLATION ACCESS:     134087  HIT:     134087  MISS:          0  HIT %:        100  MISS %:          0   MPKI: 0
PSCL5 TRANSLATION FROM L1D PREFETCHER ACCESS:       1961  HIT:       1961  MISS:          0  HIT %:        100  MISS %:          0   MPKI: 0
PSCL5 PREFETCH  REQUESTED:          0  ISSUED:          0  USEFUL:          0  USELESS:          0
PSCL5 USEFUL LOAD PREFETCHES:          0 PREFETCH ISSUED TO LOWER LEVEL:          0  ACCURACY: -nan
PSCL5 TIMELY PREFETCHES:          0 LATE PREFETCHES: 0 DROPPED PREFETCHES: 0
PSCL5 PREFETCHES SAME FILL-ORIGIN LEVEL: 0 DIFFERENT FILL-ORIGIN LEVEL: 0

PSCL4 TOTAL     ACCESS:     136048  HIT:     136048  MISS:          0  HIT %:        100  MISS %:          0   MPKI: 0
PSCL4 LOAD TRANSLATION ACCESS:     134087  HIT:     134087  MISS:          0  HIT %:        100  MISS %:          0   MPKI: 0
PSCL4 TRANSLATION FROM L1D PREFETCHER ACCESS:       1961  HIT:       1961  MISS:          0  HIT %:        100  MISS %:          0   MPKI: 0
PSCL4 PREFETCH  REQUESTED:          0  ISSUED:          0  USEFUL:          0  USELESS:          0
PSCL4 USEFUL LOAD PREFETCHES:          0 PREFETCH ISSUED TO LOWER LEVEL:          0  ACCURACY: -nan
PSCL4 TIMELY PREFETCHES:          0 LATE PREFETCHES: 0 DROPPED PREFETCHES: 0
PSCL4 PREFETCHES SAME FILL-ORIGIN LEVEL: 0 DIFFERENT FILL-ORIGIN LEVEL: 0

PSCL3 TOTAL     ACCESS:     136048  HIT:     136048  MISS:          0  HIT %:        100  MISS %:          0   MPKI: 0
PSCL3 LOAD TRANSLATION ACCESS:     134087  HIT:     134087  MISS:          0  HIT %:        100  MISS %:          0   MPKI: 0
PSCL3 TRANSLATION FROM L1D PREFETCHER ACCESS:       1961  HIT:       1961  MISS:          0  HIT %:        100  MISS %:          0   MPKI: 0
PSCL3 PREFETCH  REQUESTED:          0  ISSUED:          0  USEFUL:          0  USELESS:          0
PSCL3 USEFUL LOAD PREFETCHES:          0 PREFETCH ISSUED TO LOWER LEVEL:          0  ACCURACY: -nan
PSCL3 TIMELY PREFETCHES:          0 LATE PREFETCHES: 0 DROPPED PREFETCHES: 0
PSCL3 PREFETCHES SAME FILL-ORIGIN LEVEL: 0 DIFFERENT FILL-ORIGIN LEVEL: 0

PSCL2 TOTAL     ACCESS:     136047  HIT:     135940  MISS:        107  HIT %:    99.9214  MISS %:  0.0786493   MPKI: 0.000535
PSCL2 LOAD TRANSLATION ACCESS:     134095  HIT:     133988  MISS:        107  HIT %:    99.9202  MISS %:  0.0797942   MPKI: 0.000535
PSCL2 TRANSLATION FROM L1D PREFETCHER ACCESS:       1952  HIT:       1952  MISS:          0  HIT %:        100  MISS %:          0   MPKI: 0
PSCL2 PREFETCH  REQUESTED:          0  ISSUED:          0  USEFUL:          0  USELESS:          0
PSCL2 USEFUL LOAD PREFETCHES:          0 PREFETCH ISSUED TO LOWER LEVEL:          0  ACCURACY: -nan
PSCL2 TIMELY PREFETCHES:          0 LATE PREFETCHES: 0 DROPPED PREFETCHES: 0
PSCL2 PREFETCHES SAME FILL-ORIGIN LEVEL: 0 DIFFERENT FILL-ORIGIN LEVEL: 0

LLC TOTAL     ACCESS:     996996  HIT:     746833  MISS:     250163  HIT %:    74.9083  MISS %:    25.0917   MPKI: 1.25081
LLC LOAD      ACCESS:     495602  HIT:     295351  MISS:     200251  HIT %:    59.5944  MISS %:    40.4056   MPKI: 1.00125
LLC RFO       ACCESS:      51843  HIT:      20166  MISS:      31677  HIT %:    38.8982  MISS %:    61.1018   MPKI: 0.158385
LLC PREFETCH  ACCESS:      17949  HIT:       8439  MISS:       9510  HIT %:    47.0165  MISS %:    52.9835   MPKI: 0.04755
LLC WRITEBACK ACCESS:     393146  HIT:     385705  MISS:       7441  HIT %:    98.1073  MISS %:    1.89268   MPKI: 0.037205
LLC LOAD TRANSLATION ACCESS:      38365  HIT:      37102  MISS:       1263  HIT %:    96.7079  MISS %:    3.29206   MPKI: 0.006315
LLC TRANSLATION FROM L1D PREFETCHER ACCESS:         91  HIT:         70  MISS:         21  HIT %:    76.9231  MISS %:    23.0769   MPKI: 0.000105
LLC PREFETCH  REQUESTED:          0  ISSUED:          0  USEFUL:       3249  USELESS:      34471
LLC USEFUL LOAD PREFETCHES:       3249 PREFETCH ISSUED TO LOWER LEVEL:      39704  ACCURACY: 8.18305
LLC TIMELY PREFETCHES:       3249 LATE PREFETCHES: 0 DROPPED PREFETCHES: 0
LLC PREFETCHES SAME FILL-ORIGIN LEVEL: 0 DIFFERENT FILL-ORIGIN LEVEL: 0
LLC AVERAGE MISS LATENCY: 732.788 cycles
LLC RQ	ACCESS:    2335802	FORWARD:          0	MERGED:          0	TO_CACHE:    2335796
LLC WQ	ACCESS:    1570447	FORWARD:          6	MERGED:          0	TO_CACHE:    1570447
LLC PQ	ACCESS:      72027	FORWARD:          0	MERGED:          0	TO_CACHE:      72027

LLC Dense regions hint to LLC: 0

RAW hits: 2638541
Loads Generated: 47326163
Loads sent to L1D: 44687619
Stores Generated: 17197832
Stores sent to L1D: 17197816
Major fault: 0 Minor fault: 8202
Allocated PAGES: 32808

DRAM Statistics
 CHANNEL 0
 RQ ROW_BUFFER_HIT:      30625  ROW_BUFFER_MISS:     943831
 DBUS_CONGESTED:        147
 WQ ROW_BUFFER_HIT:     206075  ROW_BUFFER_MISS:     581781  FULL:          0

 AVG_CONGESTED_CYCLE: 5
 All warmup complete: 5
Channel 0 Bank busy for read cycles: 0
Channel 0 Bank busy for write cycles: 0
Channel 0
Rank 0
0banks busy for read cycles: 95433194
0banks busy for write cycles: 135610
1banks busy for read cycles: 62658905
1banks busy for write cycles: 19722115
2banks busy for read cycles: 23863687
2banks busy for write cycles: 10298732
3banks busy for read cycles: 7088869
3banks busy for write cycles: 6695314
4banks busy for read cycles: 1791791
4banks busy for write cycles: 4820704
5banks busy for read cycles: 450092
5banks busy for write cycles: 3783238
6banks busy for read cycles: 153808
6banks busy for write cycles: 3194020
7banks busy for read cycles: 88577
7banks busy for write cycles: 3151120
8banks busy for read cycles: 113316
8banks busy for write cycles: 3440670

CPU 0 Branch Prediction Accuracy: 92.4682% MPKI: 9.41658 Average ROB Occupancy at Mispredict: 46.5608
Branch types
NOT_BRANCH: 175006902 87.4973%
BRANCH_DIRECT_JUMP: 2818670 1.40924%
BRANCH_INDIRECT: 447403 0.223686%
BRANCH_CONDITIONAL: 21155583 10.5771%
BRANCH_DIRECT_CALL: 190469 0.0952279%
BRANCH_INDIRECT_CALL: 102043 0.0510179%
BRANCH_RETURN: 292510 0.146245%
BRANCH_OTHER: 0 0%


CPU 1 Branch Prediction Accuracy: 92.4681% MPKI: 9.41657 Average ROB Occupancy at Mispredict: 46.5632
Branch types
NOT_BRANCH: 175012121 87.4975%
BRANCH_DIRECT_JUMP: 2818751 1.40924%
BRANCH_INDIRECT: 447403 0.223679%
BRANCH_CONDITIONAL: 21156069 10.577%
BRANCH_DIRECT_CALL: 190472 0.0952266%
BRANCH_INDIRECT_CALL: 102046 0.051018%
BRANCH_RETURN: 292518 0.146245%
BRANCH_OTHER: 0 0%


CPU 2 Branch Prediction Accuracy: 92.4682% MPKI: 9.41665 Average ROB Occupancy at Mispredict: 46.5776
Branch types
NOT_BRANCH: 174994474 87.4972%
BRANCH_DIRECT_JUMP: 2818431 1.40922%
BRANCH_INDIRECT: 447403 0.223701%
BRANCH_CONDITIONAL: 21154358 10.5772%
BRANCH_DIRECT_CALL: 190457 0.0952285%
BRANCH_INDIRECT_CALL: 102031 0.0510155%
BRANCH_RETURN: 292486 0.146243%
BRANCH_OTHER: 0 0%


CPU 3 Branch Prediction Accuracy: 92.4682% MPKI: 9.4166 Average ROB Occupancy at Mispredict: 46.5688
Branch types
NOT_BRANCH: 175002551 87.4973%
BRANCH_DIRECT_JUMP: 2818576 1.40922%
BRANCH_INDIRECT: 447403 0.223691%
BRANCH_CONDITIONAL: 21155135 10.5771%
BRANCH_DIRECT_CALL: 190463 0.0952272%
BRANCH_INDIRECT_CALL: 102037 0.0510162%
BRANCH_RETURN: 292500 0.146243%
BRANCH_OTHER: 0 0%

DRAM PAGES: 1048576
Allocated PAGES: 32808
