
*** ChampSim Multicore Out-of-Order Simulator ***

Warmup Instructions: 50000000
Simulation Instructions: 200000000
Number of CPUs: 4
LLC sets: 8192
LLC ways: 16
Off-chip DRAM Size: 4096 MB Channels: 1 Width: 64-bit Data Rate: 6400 MT/s
CPU 0 runs ./traces/spec/654.roms_s-1007B.champsimtrace.xz
.xz
CPU 1 runs ./traces/spec/654.roms_s-1007B.champsimtrace.xz
.xz
CPU 2 runs ./traces/spec/654.roms_s-1007B.champsimtrace.xz
.xz
CPU 3 runs ./traces/spec/654.roms_s-1007B.champsimtrace.xz
.xz
BTB has LRU replacement policy
ITLB has LRU replacement policy
DTLB has LRU replacement policy
STLB has LRU replacement policy
L1I has LRU replacement policy
History Sets: 8
History Ways: 16
BERTI Size: 16
BERTI Stride Size: 8
L1D has LRU replacement policy
Initialize SRRIP state for L2C
Initialize DRRIP state for LLC
BTB has LRU replacement policy
ITLB has LRU replacement policy
DTLB has LRU replacement policy
STLB has LRU replacement policy
L1I has LRU replacement policy
History Sets: 8
History Ways: 16
BERTI Size: 16
BERTI Stride Size: 8
L1D has LRU replacement policy
Initialize SRRIP state for L2C
Initialize DRRIP state for LLC
BTB has LRU replacement policy
ITLB has LRU replacement policy
DTLB has LRU replacement policy
STLB has LRU replacement policy
L1I has LRU replacement policy
History Sets: 8
History Ways: 16
BERTI Size: 16
BERTI Stride Size: 8
L1D has LRU replacement policy
Initialize SRRIP state for L2C
Initialize DRRIP state for LLC
BTB has LRU replacement policy
ITLB has LRU replacement policy
DTLB has LRU replacement policy
STLB has LRU replacement policy
L1I has LRU replacement policy
History Sets: 8
History Ways: 16
BERTI Size: 16
BERTI Stride Size: 8
L1D has LRU replacement policy
Initialize SRRIP state for L2C
Initialize DRRIP state for LLC
Heartbeat CPU 0 instructions: 10000000 cycles: 3016010 heartbeat IPC: 3.31564 cumulative IPC: 3.31564 (Simulation time: 0 hr 3 min 7 sec) 
Heartbeat CPU 1 instructions: 10000000 cycles: 3016024 heartbeat IPC: 3.31562 cumulative IPC: 3.31562 (Simulation time: 0 hr 3 min 7 sec) 
Heartbeat CPU 3 instructions: 10000000 cycles: 3016040 heartbeat IPC: 3.31561 cumulative IPC: 3.31561 (Simulation time: 0 hr 3 min 7 sec) 
Heartbeat CPU 2 instructions: 10000000 cycles: 3016052 heartbeat IPC: 3.31559 cumulative IPC: 3.31559 (Simulation time: 0 hr 3 min 7 sec) 
Heartbeat CPU 0 instructions: 20000002 cycles: 6031762 heartbeat IPC: 3.31592 cumulative IPC: 3.31578 (Simulation time: 0 hr 6 min 16 sec) 
Heartbeat CPU 1 instructions: 20000002 cycles: 6031776 heartbeat IPC: 3.31592 cumulative IPC: 3.31577 (Simulation time: 0 hr 6 min 16 sec) 
Heartbeat CPU 3 instructions: 20000002 cycles: 6031790 heartbeat IPC: 3.31593 cumulative IPC: 3.31577 (Simulation time: 0 hr 6 min 16 sec) 
Heartbeat CPU 2 instructions: 20000002 cycles: 6031806 heartbeat IPC: 3.31592 cumulative IPC: 3.31576 (Simulation time: 0 hr 6 min 16 sec) 
Heartbeat CPU 0 instructions: 30000000 cycles: 9047649 heartbeat IPC: 3.31577 cumulative IPC: 3.31578 (Simulation time: 0 hr 9 min 17 sec) 
Heartbeat CPU 1 instructions: 30000000 cycles: 9047662 heartbeat IPC: 3.31577 cumulative IPC: 3.31577 (Simulation time: 0 hr 9 min 17 sec) 
Heartbeat CPU 3 instructions: 30000000 cycles: 9047674 heartbeat IPC: 3.31578 cumulative IPC: 3.31577 (Simulation time: 0 hr 9 min 17 sec) 
Heartbeat CPU 2 instructions: 30000000 cycles: 9047688 heartbeat IPC: 3.31578 cumulative IPC: 3.31576 (Simulation time: 0 hr 9 min 17 sec) 
Heartbeat CPU 0 instructions: 40000000 cycles: 12063394 heartbeat IPC: 3.31593 cumulative IPC: 3.31582 (Simulation time: 0 hr 12 min 17 sec) 
Heartbeat CPU 3 instructions: 40000000 cycles: 12063409 heartbeat IPC: 3.31594 cumulative IPC: 3.31581 (Simulation time: 0 hr 12 min 17 sec) 
Heartbeat CPU 1 instructions: 40000000 cycles: 12063412 heartbeat IPC: 3.31592 cumulative IPC: 3.31581 (Simulation time: 0 hr 12 min 17 sec) 
Heartbeat CPU 2 instructions: 40000000 cycles: 12063438 heartbeat IPC: 3.31592 cumulative IPC: 3.3158 (Simulation time: 0 hr 12 min 17 sec) 
Heartbeat CPU 0 instructions: 50000003 cycles: 15187365 heartbeat IPC: 3.20106 cumulative IPC: 3.29221 (Simulation time: 0 hr 15 min 40 sec) 
Heartbeat CPU 3 instructions: 50000003 cycles: 15187563 heartbeat IPC: 3.20087 cumulative IPC: 3.29217 (Simulation time: 0 hr 15 min 40 sec) 
Heartbeat CPU 2 instructions: 50000003 cycles: 15187828 heartbeat IPC: 3.20063 cumulative IPC: 3.29211 (Simulation time: 0 hr 15 min 40 sec) 
Heartbeat CPU 1 instructions: 50000003 cycles: 15188071 heartbeat IPC: 3.20035 cumulative IPC: 3.29206 (Simulation time: 0 hr 15 min 40 sec) 

Warmup complete CPU 0 instructions: 50002240 cycles: 15188071 (Simulation time: 0 hr 15 min 40 sec) 
Warmup complete CPU 1 instructions: 50000003 cycles: 15188071 (Simulation time: 0 hr 15 min 40 sec) 
Warmup complete CPU 2 instructions: 50000776 cycles: 15188070 (Simulation time: 0 hr 15 min 40 sec) 
Warmup complete CPU 3 instructions: 50001604 cycles: 15188070 (Simulation time: 0 hr 15 min 40 sec) 

Heartbeat CPU 0 instructions: 60000002 cycles: 41186968 heartbeat IPC: 0.384621 cumulative IPC: 0.384546 (Simulation time: 0 hr 20 min 43 sec) 
Heartbeat CPU 2 instructions: 60000002 cycles: 41224197 heartbeat IPC: 0.384078 cumulative IPC: 0.384052 (Simulation time: 0 hr 20 min 44 sec) 
Heartbeat CPU 3 instructions: 60000002 cycles: 41249177 heartbeat IPC: 0.383706 cumulative IPC: 0.383652 (Simulation time: 0 hr 20 min 44 sec) 
Heartbeat CPU 1 instructions: 60000002 cycles: 41265425 heartbeat IPC: 0.383474 cumulative IPC: 0.383474 (Simulation time: 0 hr 20 min 45 sec) 
Heartbeat CPU 0 instructions: 70000000 cycles: 57197586 heartbeat IPC: 0.624585 cumulative IPC: 0.476029 (Simulation time: 0 hr 24 min 24 sec) 
Heartbeat CPU 2 instructions: 70000000 cycles: 57235647 heartbeat IPC: 0.624553 cumulative IPC: 0.475633 (Simulation time: 0 hr 24 min 25 sec) 
Heartbeat CPU 3 instructions: 70000000 cycles: 57260615 heartbeat IPC: 0.624553 cumulative IPC: 0.475331 (Simulation time: 0 hr 24 min 25 sec) 
Heartbeat CPU 1 instructions: 70000000 cycles: 57276594 heartbeat IPC: 0.624564 cumulative IPC: 0.475189 (Simulation time: 0 hr 24 min 25 sec) 
Heartbeat CPU 0 instructions: 80000000 cycles: 73203046 heartbeat IPC: 0.624787 cumulative IPC: 0.517069 (Simulation time: 0 hr 28 min 1 sec) 
Heartbeat CPU 2 instructions: 80000000 cycles: 73243221 heartbeat IPC: 0.624704 cumulative IPC: 0.516737 (Simulation time: 0 hr 28 min 1 sec) 
Heartbeat CPU 3 instructions: 80000000 cycles: 73264487 heartbeat IPC: 0.624849 cumulative IPC: 0.516533 (Simulation time: 0 hr 28 min 2 sec) 
Heartbeat CPU 1 instructions: 80000000 cycles: 73281918 heartbeat IPC: 0.624792 cumulative IPC: 0.516406 (Simulation time: 0 hr 28 min 2 sec) 
Heartbeat CPU 0 instructions: 90000000 cycles: 89203606 heartbeat IPC: 0.624978 cumulative IPC: 0.540397 (Simulation time: 0 hr 32 min 0 sec) 
Heartbeat CPU 2 instructions: 90000000 cycles: 89246160 heartbeat IPC: 0.624885 cumulative IPC: 0.540106 (Simulation time: 0 hr 32 min 1 sec) 
Heartbeat CPU 3 instructions: 90000000 cycles: 89265343 heartbeat IPC: 0.624967 cumulative IPC: 0.539955 (Simulation time: 0 hr 32 min 1 sec) 
Heartbeat CPU 1 instructions: 90000000 cycles: 89283161 heartbeat IPC: 0.624951 cumulative IPC: 0.539847 (Simulation time: 0 hr 32 min 2 sec) 
Heartbeat CPU 0 instructions: 100000000 cycles: 105195695 heartbeat IPC: 0.625309 cumulative IPC: 0.555484 (Simulation time: 0 hr 36 min 10 sec) 
Heartbeat CPU 2 instructions: 100000000 cycles: 105238924 heartbeat IPC: 0.625283 cumulative IPC: 0.555233 (Simulation time: 0 hr 36 min 10 sec) 
Heartbeat CPU 3 instructions: 100000000 cycles: 105256748 heartbeat IPC: 0.625336 cumulative IPC: 0.555114 (Simulation time: 0 hr 36 min 11 sec) 
Heartbeat CPU 1 instructions: 100000000 cycles: 105273788 heartbeat IPC: 0.625366 cumulative IPC: 0.555027 (Simulation time: 0 hr 36 min 11 sec) 
Heartbeat CPU 0 instructions: 110000000 cycles: 121196352 heartbeat IPC: 0.624974 cumulative IPC: 0.565972 (Simulation time: 0 hr 40 min 11 sec) 
Heartbeat CPU 2 instructions: 110000000 cycles: 121238042 heartbeat IPC: 0.625034 cumulative IPC: 0.565764 (Simulation time: 0 hr 40 min 12 sec) 
Heartbeat CPU 3 instructions: 110000000 cycles: 121256626 heartbeat IPC: 0.625005 cumulative IPC: 0.565657 (Simulation time: 0 hr 40 min 12 sec) 
Heartbeat CPU 1 instructions: 110000000 cycles: 121274432 heartbeat IPC: 0.624975 cumulative IPC: 0.565577 (Simulation time: 0 hr 40 min 12 sec) 
Heartbeat CPU 3 instructions: 120000001 cycles: 142355437 heartbeat IPC: 0.47396 cumulative IPC: 0.550443 (Simulation time: 0 hr 45 min 0 sec) 
Heartbeat CPU 0 instructions: 120000001 cycles: 142412868 heartbeat IPC: 0.471331 cumulative IPC: 0.55019 (Simulation time: 0 hr 45 min 1 sec) 
Heartbeat CPU 2 instructions: 120000001 cycles: 142569699 heartbeat IPC: 0.468787 cumulative IPC: 0.549524 (Simulation time: 0 hr 45 min 3 sec) 
Heartbeat CPU 1 instructions: 120000001 cycles: 142791756 heartbeat IPC: 0.464742 cumulative IPC: 0.548573 (Simulation time: 0 hr 45 min 6 sec) 
Heartbeat CPU 3 instructions: 130000002 cycles: 178636231 heartbeat IPC: 0.275628 cumulative IPC: 0.489442 (Simulation time: 0 hr 51 min 41 sec) 
Heartbeat CPU 0 instructions: 130000002 cycles: 178637145 heartbeat IPC: 0.276058 cumulative IPC: 0.489435 (Simulation time: 0 hr 51 min 41 sec) 
Heartbeat CPU 2 instructions: 130000002 cycles: 178694268 heartbeat IPC: 0.27682 cumulative IPC: 0.489273 (Simulation time: 0 hr 51 min 42 sec) 
Heartbeat CPU 1 instructions: 130000002 cycles: 178887023 heartbeat IPC: 0.277045 cumulative IPC: 0.488702 (Simulation time: 0 hr 51 min 45 sec) 
Heartbeat CPU 0 instructions: 140000000 cycles: 194634331 heartbeat IPC: 0.62511 cumulative IPC: 0.50153 (Simulation time: 0 hr 55 min 20 sec) 
Heartbeat CPU 3 instructions: 140000000 cycles: 194634794 heartbeat IPC: 0.625056 cumulative IPC: 0.501533 (Simulation time: 0 hr 55 min 20 sec) 
Heartbeat CPU 2 instructions: 140000000 cycles: 194690362 heartbeat IPC: 0.625152 cumulative IPC: 0.501382 (Simulation time: 0 hr 55 min 21 sec) 
Heartbeat CPU 1 instructions: 140000000 cycles: 194885889 heartbeat IPC: 0.625044 cumulative IPC: 0.500841 (Simulation time: 0 hr 55 min 23 sec) 
Heartbeat CPU 0 instructions: 150000000 cycles: 210638647 heartbeat IPC: 0.624831 cumulative IPC: 0.511627 (Simulation time: 0 hr 59 min 0 sec) 
Heartbeat CPU 3 instructions: 150000000 cycles: 210639811 heartbeat IPC: 0.624804 cumulative IPC: 0.511627 (Simulation time: 0 hr 59 min 0 sec) 
Heartbeat CPU 2 instructions: 150000000 cycles: 210693489 heartbeat IPC: 0.624878 cumulative IPC: 0.511491 (Simulation time: 0 hr 59 min 1 sec) 
Heartbeat CPU 1 instructions: 150000000 cycles: 210890957 heartbeat IPC: 0.624802 cumulative IPC: 0.510979 (Simulation time: 0 hr 59 min 3 sec) 
Heartbeat CPU 0 instructions: 160000001 cycles: 226639175 heartbeat IPC: 0.624979 cumulative IPC: 0.520204 (Simulation time: 1 hr 2 min 48 sec) 
Heartbeat CPU 3 instructions: 160000001 cycles: 226640695 heartbeat IPC: 0.624966 cumulative IPC: 0.520204 (Simulation time: 1 hr 2 min 48 sec) 
Heartbeat CPU 2 instructions: 160000001 cycles: 226697788 heartbeat IPC: 0.624832 cumulative IPC: 0.520067 (Simulation time: 1 hr 2 min 49 sec) 
Heartbeat CPU 1 instructions: 160000001 cycles: 226897997 heartbeat IPC: 0.624725 cumulative IPC: 0.519579 (Simulation time: 1 hr 2 min 53 sec) 
Heartbeat CPU 0 instructions: 170000000 cycles: 242630272 heartbeat IPC: 0.625348 cumulative IPC: 0.527597 (Simulation time: 1 hr 6 min 58 sec) 
Heartbeat CPU 3 instructions: 170000000 cycles: 242636313 heartbeat IPC: 0.625171 cumulative IPC: 0.527586 (Simulation time: 1 hr 6 min 58 sec) 
Heartbeat CPU 2 instructions: 170000000 cycles: 242692059 heartbeat IPC: 0.625224 cumulative IPC: 0.52746 (Simulation time: 1 hr 6 min 59 sec) 
Heartbeat CPU 1 instructions: 170000000 cycles: 242892926 heartbeat IPC: 0.625198 cumulative IPC: 0.526998 (Simulation time: 1 hr 7 min 2 sec) 
Heartbeat CPU 0 instructions: 180000002 cycles: 258627967 heartbeat IPC: 0.62509 cumulative IPC: 0.534003 (Simulation time: 1 hr 10 min 39 sec) 
Heartbeat CPU 3 instructions: 180000002 cycles: 258636892 heartbeat IPC: 0.624978 cumulative IPC: 0.533987 (Simulation time: 1 hr 10 min 39 sec) 
Heartbeat CPU 2 instructions: 180000002 cycles: 258691374 heartbeat IPC: 0.625027 cumulative IPC: 0.53387 (Simulation time: 1 hr 10 min 40 sec) 
Heartbeat CPU 1 instructions: 180000002 cycles: 258893104 heartbeat IPC: 0.624993 cumulative IPC: 0.533432 (Simulation time: 1 hr 10 min 43 sec) 
Heartbeat CPU 0 instructions: 190000002 cycles: 274629050 heartbeat IPC: 0.624958 cumulative IPC: 0.539613 (Simulation time: 1 hr 14 min 16 sec) 
Heartbeat CPU 3 instructions: 190000002 cycles: 274640324 heartbeat IPC: 0.624866 cumulative IPC: 0.539592 (Simulation time: 1 hr 14 min 16 sec) 
Heartbeat CPU 2 instructions: 190000002 cycles: 274691366 heartbeat IPC: 0.625 cumulative IPC: 0.539489 (Simulation time: 1 hr 14 min 16 sec) 
Heartbeat CPU 1 instructions: 190000002 cycles: 274897192 heartbeat IPC: 0.62484 cumulative IPC: 0.539065 (Simulation time: 1 hr 14 min 19 sec) 
Heartbeat CPU 0 instructions: 200000001 cycles: 308841796 heartbeat IPC: 0.292289 cumulative IPC: 0.510798 (Simulation time: 1 hr 21 min 38 sec) 
Heartbeat CPU 2 instructions: 200000001 cycles: 308884523 heartbeat IPC: 0.292456 cumulative IPC: 0.510729 (Simulation time: 1 hr 21 min 38 sec) 
Heartbeat CPU 3 instructions: 200000001 cycles: 308986707 heartbeat IPC: 0.291151 cumulative IPC: 0.510548 (Simulation time: 1 hr 21 min 39 sec) 
Heartbeat CPU 1 instructions: 200000001 cycles: 309157428 heartbeat IPC: 0.291884 cumulative IPC: 0.510257 (Simulation time: 1 hr 21 min 40 sec) 
Heartbeat CPU 0 instructions: 210000001 cycles: 332053995 heartbeat IPC: 0.430808 cumulative IPC: 0.504938 (Simulation time: 1 hr 26 min 10 sec) 
Heartbeat CPU 3 instructions: 210000001 cycles: 332132035 heartbeat IPC: 0.432053 cumulative IPC: 0.504816 (Simulation time: 1 hr 26 min 11 sec) 
Heartbeat CPU 2 instructions: 210000001 cycles: 332160877 heartbeat IPC: 0.429621 cumulative IPC: 0.504773 (Simulation time: 1 hr 26 min 12 sec) 
Heartbeat CPU 1 instructions: 210000001 cycles: 332250593 heartbeat IPC: 0.433029 cumulative IPC: 0.504632 (Simulation time: 1 hr 26 min 13 sec) 
Heartbeat CPU 0 instructions: 220000000 cycles: 348050371 heartbeat IPC: 0.625142 cumulative IPC: 0.510715 (Simulation time: 1 hr 30 min 3 sec) 
Heartbeat CPU 3 instructions: 220000000 cycles: 348130516 heartbeat IPC: 0.625059 cumulative IPC: 0.510594 (Simulation time: 1 hr 30 min 4 sec) 
Heartbeat CPU 2 instructions: 220000000 cycles: 348156516 heartbeat IPC: 0.62517 cumulative IPC: 0.510557 (Simulation time: 1 hr 30 min 5 sec) 
Heartbeat CPU 1 instructions: 220000000 cycles: 348247472 heartbeat IPC: 0.625122 cumulative IPC: 0.510419 (Simulation time: 1 hr 30 min 6 sec) 
Heartbeat CPU 0 instructions: 230000000 cycles: 364052713 heartbeat IPC: 0.624909 cumulative IPC: 0.515953 (Simulation time: 1 hr 34 min 1 sec) 
Heartbeat CPU 3 instructions: 230000000 cycles: 364132793 heartbeat IPC: 0.624911 cumulative IPC: 0.515836 (Simulation time: 1 hr 34 min 2 sec) 
Heartbeat CPU 2 instructions: 230000000 cycles: 364158608 heartbeat IPC: 0.624918 cumulative IPC: 0.515801 (Simulation time: 1 hr 34 min 3 sec) 
Heartbeat CPU 1 instructions: 230000000 cycles: 364254054 heartbeat IPC: 0.624743 cumulative IPC: 0.515662 (Simulation time: 1 hr 34 min 4 sec) 
Heartbeat CPU 0 instructions: 240000001 cycles: 380054128 heartbeat IPC: 0.624945 cumulative IPC: 0.520733 (Simulation time: 1 hr 37 min 51 sec) 
Heartbeat CPU 3 instructions: 240000001 cycles: 380134226 heartbeat IPC: 0.624944 cumulative IPC: 0.52062 (Simulation time: 1 hr 37 min 51 sec) 
Heartbeat CPU 2 instructions: 240000001 cycles: 380160500 heartbeat IPC: 0.624926 cumulative IPC: 0.520585 (Simulation time: 1 hr 37 min 52 sec) 
Heartbeat CPU 1 instructions: 240000001 cycles: 380257235 heartbeat IPC: 0.624876 cumulative IPC: 0.520449 (Simulation time: 1 hr 37 min 53 sec) 
Heartbeat CPU 0 instructions: 250000003 cycles: 396046917 heartbeat IPC: 0.625282 cumulative IPC: 0.525123 (Simulation time: 1 hr 41 min 44 sec) 
Finished CPU 0 instructions: 200000000 cycles: 380862587 cumulative IPC: 0.525124 (Simulation time: 1 hr 41 min 44 sec) 
Heartbeat CPU 3 instructions: 250000003 cycles: 396125966 heartbeat IPC: 0.625323 cumulative IPC: 0.525016 (Simulation time: 1 hr 41 min 46 sec) 
Finished CPU 3 instructions: 200000003 cycles: 380940556 cumulative IPC: 0.525016 (Simulation time: 1 hr 41 min 46 sec) 
Heartbeat CPU 2 instructions: 250000003 cycles: 396152007 heartbeat IPC: 0.625332 cumulative IPC: 0.524982 (Simulation time: 1 hr 41 min 46 sec) 
Finished CPU 2 instructions: 200000000 cycles: 380965169 cumulative IPC: 0.524982 (Simulation time: 1 hr 41 min 46 sec) 
Heartbeat CPU 1 instructions: 250000003 cycles: 396250962 heartbeat IPC: 0.625245 cumulative IPC: 0.524848 (Simulation time: 1 hr 41 min 48 sec) 
Finished CPU 1 instructions: 200000000 cycles: 381062891 cumulative IPC: 0.524848 (Simulation time: 1 hr 41 min 48 sec) 

ChampSim completed all CPUs

Total Simulation Statistics (not including warmup)

CPU 0 cumulative IPC: 0.525176 instructions: 200125144 cycles: 381062891
ITLB TOTAL     ACCESS:   33981965  HIT:   33981963  MISS:          2  HIT %:        100  MISS %: 5.88547e-06   MPKI: 9.99375e-06
ITLB LOAD      ACCESS:          0  HIT:          0  MISS:          0  HIT %:       -nan  MISS %:       -nan   MPKI: 0
ITLB RFO       ACCESS:          0  HIT:          0  MISS:          0  HIT %:       -nan  MISS %:       -nan   MPKI: 0
ITLB PREFETCH  ACCESS:          0  HIT:          0  MISS:          0  HIT %:       -nan  MISS %:       -nan   MPKI: 0
ITLB WRITEBACK ACCESS:          0  HIT:          0  MISS:          0  HIT %:       -nan  MISS %:       -nan   MPKI: 0
DTLB TOTAL     ACCESS:   53855769  HIT:   53825873  MISS:      29896  HIT %:    99.9445  MISS %:  0.0555112   MPKI: 0.149387
DTLB LOAD      ACCESS:          0  HIT:          0  MISS:          0  HIT %:       -nan  MISS %:       -nan   MPKI: 0
DTLB RFO       ACCESS:          0  HIT:          0  MISS:          0  HIT %:       -nan  MISS %:       -nan   MPKI: 0
DTLB PREFETCH  ACCESS:          0  HIT:          0  MISS:          0  HIT %:       -nan  MISS %:       -nan   MPKI: 0
DTLB WRITEBACK ACCESS:          0  HIT:          0  MISS:          0  HIT %:       -nan  MISS %:       -nan   MPKI: 0
STLB TOTAL     ACCESS:    5416566  HIT:    5387417  MISS:      29149  HIT %:    99.4619  MISS %:   0.538145   MPKI: 0.145654
STLB LOAD      ACCESS:          0  HIT:          0  MISS:          0  HIT %:       -nan  MISS %:       -nan   MPKI: 0
STLB RFO       ACCESS:          0  HIT:          0  MISS:          0  HIT %:       -nan  MISS %:       -nan   MPKI: 0
STLB PREFETCH  ACCESS:          0  HIT:          0  MISS:          0  HIT %:       -nan  MISS %:       -nan   MPKI: 0
STLB WRITEBACK ACCESS:          0  HIT:          0  MISS:          0  HIT %:       -nan  MISS %:       -nan   MPKI: 0
L1D TOTAL     ACCESS:   80264301  HIT:   79028083  MISS:    1236218  HIT %:    98.4598  MISS %:    1.54018   MPKI: 6.17722
L1D LOAD      ACCESS:   37674348  HIT:   37418365  MISS:     255983  HIT %:    99.3205  MISS %:   0.679462   MPKI: 1.27911
L1D RFO       ACCESS:   21561772  HIT:   21143346  MISS:     418426  HIT %:    98.0594  MISS %:    1.94059   MPKI: 2.09082
L1D PREFETCH  ACCESS:   21028181  HIT:   20466372  MISS:     561809  HIT %:    97.3283  MISS %:     2.6717   MPKI: 2.80729
L1D WRITEBACK ACCESS:          0  HIT:          0  MISS:          0  HIT %:       -nan  MISS %:       -nan   MPKI: 0
L1I TOTAL     ACCESS:   43095344  HIT:   43095308  MISS:         36  HIT %:    99.9999  MISS %: 8.35357e-05   MPKI: 0.000179887
L1I LOAD      ACCESS:   43095344  HIT:   43095308  MISS:         36  HIT %:    99.9999  MISS %: 8.35357e-05   MPKI: 0.000179887
L1I RFO       ACCESS:          0  HIT:          0  MISS:          0  HIT %:       -nan  MISS %:       -nan   MPKI: 0
L1I PREFETCH  ACCESS:          0  HIT:          0  MISS:          0  HIT %:       -nan  MISS %:       -nan   MPKI: 0
L1I WRITEBACK ACCESS:          0  HIT:          0  MISS:          0  HIT %:       -nan  MISS %:       -nan   MPKI: 0
L2C TOTAL     ACCESS:    3437084  HIT:    2096153  MISS:    1340931  HIT %:    60.9864  MISS %:    39.0136   MPKI: 6.70046
L2C LOAD      ACCESS:     221054  HIT:     127057  MISS:      93997  HIT %:    57.4778  MISS %:    42.5222   MPKI: 0.469691
L2C RFO       ACCESS:     418426  HIT:          0  MISS:     418426  HIT %:          0  MISS %:        100   MPKI: 2.09082
L2C PREFETCH  ACCESS:    2315233  HIT:    1564329  MISS:     750904  HIT %:    67.5668  MISS %:    32.4332   MPKI: 3.75217
L2C WRITEBACK ACCESS:     418297  HIT:     346941  MISS:      71356  HIT %:    82.9413  MISS %:    17.0587   MPKI: 0.356557
PSCL5 TOTAL     ACCESS:      63977  HIT:      63977  MISS:          0  HIT %:        100  MISS %:          0   MPKI: 0
PSCL5 LOAD      ACCESS:          0  HIT:          0  MISS:          0  HIT %:       -nan  MISS %:       -nan   MPKI: 0
PSCL5 RFO       ACCESS:          0  HIT:          0  MISS:          0  HIT %:       -nan  MISS %:       -nan   MPKI: 0
PSCL5 PREFETCH  ACCESS:          0  HIT:          0  MISS:          0  HIT %:       -nan  MISS %:       -nan   MPKI: 0
PSCL5 WRITEBACK ACCESS:          0  HIT:          0  MISS:          0  HIT %:       -nan  MISS %:       -nan   MPKI: 0
PSCL4 TOTAL     ACCESS:      63977  HIT:      63977  MISS:          0  HIT %:        100  MISS %:          0   MPKI: 0
PSCL4 LOAD      ACCESS:          0  HIT:          0  MISS:          0  HIT %:       -nan  MISS %:       -nan   MPKI: 0
PSCL4 RFO       ACCESS:          0  HIT:          0  MISS:          0  HIT %:       -nan  MISS %:       -nan   MPKI: 0
PSCL4 PREFETCH  ACCESS:          0  HIT:          0  MISS:          0  HIT %:       -nan  MISS %:       -nan   MPKI: 0
PSCL4 WRITEBACK ACCESS:          0  HIT:          0  MISS:          0  HIT %:       -nan  MISS %:       -nan   MPKI: 0
PSCL3 TOTAL     ACCESS:      63974  HIT:      63968  MISS:          6  HIT %:    99.9906  MISS %: 0.00937881   MPKI: 2.99812e-05
PSCL3 LOAD      ACCESS:          0  HIT:          0  MISS:          0  HIT %:       -nan  MISS %:       -nan   MPKI: 0
PSCL3 RFO       ACCESS:          0  HIT:          0  MISS:          0  HIT %:       -nan  MISS %:       -nan   MPKI: 0
PSCL3 PREFETCH  ACCESS:          0  HIT:          0  MISS:          0  HIT %:       -nan  MISS %:       -nan   MPKI: 0
PSCL3 WRITEBACK ACCESS:          0  HIT:          0  MISS:          0  HIT %:       -nan  MISS %:       -nan   MPKI: 0
PSCL2 TOTAL     ACCESS:      63932  HIT:      63806  MISS:        126  HIT %:    99.8029  MISS %:   0.197084   MPKI: 0.000629606
PSCL2 LOAD      ACCESS:          0  HIT:          0  MISS:          0  HIT %:       -nan  MISS %:       -nan   MPKI: 0
PSCL2 RFO       ACCESS:          0  HIT:          0  MISS:          0  HIT %:       -nan  MISS %:       -nan   MPKI: 0
PSCL2 PREFETCH  ACCESS:          0  HIT:          0  MISS:          0  HIT %:       -nan  MISS %:       -nan   MPKI: 0
PSCL2 WRITEBACK ACCESS:          0  HIT:          0  MISS:          0  HIT %:       -nan  MISS %:       -nan   MPKI: 0
LLC TOTAL     ACCESS:    1687564  HIT:     401428  MISS:    1286136  HIT %:    23.7874  MISS %:    76.2126   MPKI: 6.42666
LLC LOAD      ACCESS:      37688  HIT:         52  MISS:      37636  HIT %:   0.137975  MISS %:     99.862   MPKI: 0.188062
LLC RFO       ACCESS:     418426  HIT:          0  MISS:     418426  HIT %:          0  MISS %:        100   MPKI: 2.09082
LLC PREFETCH  ACCESS:     807213  HIT:        188  MISS:     807025  HIT %:    0.02329  MISS %:    99.9767   MPKI: 4.0326
LLC WRITEBACK ACCESS:     417989  HIT:     401069  MISS:      16920  HIT %:     95.952  MISS %:    4.04795   MPKI: 0.0845471

RAW hits: 6768100
Loads Generated: 54597358
Loads sent to L1D: 47829258
Stores Generated: 25069260
Stores sent to L1D: 25069261

CPU 1 cumulative IPC: 0.524848 instructions: 200000000 cycles: 381062891
ITLB TOTAL     ACCESS:   33961975  HIT:   33961973  MISS:          2  HIT %:        100  MISS %: 5.88894e-06   MPKI: 1e-05
ITLB LOAD      ACCESS:          0  HIT:          0  MISS:          0  HIT %:       -nan  MISS %:       -nan   MPKI: 0
ITLB RFO       ACCESS:          0  HIT:          0  MISS:          0  HIT %:       -nan  MISS %:       -nan   MPKI: 0
ITLB PREFETCH  ACCESS:          0  HIT:          0  MISS:          0  HIT %:       -nan  MISS %:       -nan   MPKI: 0
ITLB WRITEBACK ACCESS:          0  HIT:          0  MISS:          0  HIT %:       -nan  MISS %:       -nan   MPKI: 0
DTLB TOTAL     ACCESS:   53819570  HIT:   53789671  MISS:      29899  HIT %:    99.9444  MISS %:  0.0555541   MPKI: 0.149495
DTLB LOAD      ACCESS:          0  HIT:          0  MISS:          0  HIT %:       -nan  MISS %:       -nan   MPKI: 0
DTLB RFO       ACCESS:          0  HIT:          0  MISS:          0  HIT %:       -nan  MISS %:       -nan   MPKI: 0
DTLB PREFETCH  ACCESS:          0  HIT:          0  MISS:          0  HIT %:       -nan  MISS %:       -nan   MPKI: 0
DTLB WRITEBACK ACCESS:          0  HIT:          0  MISS:          0  HIT %:       -nan  MISS %:       -nan   MPKI: 0
STLB TOTAL     ACCESS:    5419088  HIT:    5389943  MISS:      29145  HIT %:    99.4622  MISS %:   0.537821   MPKI: 0.145725
STLB LOAD      ACCESS:          0  HIT:          0  MISS:          0  HIT %:       -nan  MISS %:       -nan   MPKI: 0
STLB RFO       ACCESS:          0  HIT:          0  MISS:          0  HIT %:       -nan  MISS %:       -nan   MPKI: 0
STLB PREFETCH  ACCESS:          0  HIT:          0  MISS:          0  HIT %:       -nan  MISS %:       -nan   MPKI: 0
STLB WRITEBACK ACCESS:          0  HIT:          0  MISS:          0  HIT %:       -nan  MISS %:       -nan   MPKI: 0
L1D TOTAL     ACCESS:   80236731  HIT:   79000245  MISS:    1236486  HIT %:     98.459  MISS %:    1.54105   MPKI: 6.18243
L1D LOAD      ACCESS:   37645447  HIT:   37388808  MISS:     256639  HIT %:    99.3183  MISS %:   0.681727   MPKI: 1.2832
L1D RFO       ACCESS:   21550496  HIT:   21132113  MISS:     418383  HIT %:    98.0586  MISS %:    1.94141   MPKI: 2.09192
L1D PREFETCH  ACCESS:   21040788  HIT:   20479324  MISS:     561464  HIT %:    97.3315  MISS %:    2.66846   MPKI: 2.80732
L1D WRITEBACK ACCESS:          0  HIT:          0  MISS:          0  HIT %:       -nan  MISS %:       -nan   MPKI: 0
L1I TOTAL     ACCESS:   43068710  HIT:   43068674  MISS:         36  HIT %:    99.9999  MISS %: 8.35874e-05   MPKI: 0.00018
L1I LOAD      ACCESS:   43068710  HIT:   43068674  MISS:         36  HIT %:    99.9999  MISS %: 8.35874e-05   MPKI: 0.00018
L1I RFO       ACCESS:          0  HIT:          0  MISS:          0  HIT %:       -nan  MISS %:       -nan   MPKI: 0
L1I PREFETCH  ACCESS:          0  HIT:          0  MISS:          0  HIT %:       -nan  MISS %:       -nan   MPKI: 0
L1I WRITEBACK ACCESS:          0  HIT:          0  MISS:          0  HIT %:       -nan  MISS %:       -nan   MPKI: 0
L2C TOTAL     ACCESS:    3422026  HIT:    2082018  MISS:    1340008  HIT %:    60.8417  MISS %:    39.1583   MPKI: 6.70004
L2C LOAD      ACCESS:     221865  HIT:     127276  MISS:      94589  HIT %:    57.3664  MISS %:    42.6336   MPKI: 0.472945
L2C RFO       ACCESS:     418383  HIT:          0  MISS:     418383  HIT %:          0  MISS %:        100   MPKI: 2.09192
L2C PREFETCH  ACCESS:    2300448  HIT:    1550277  MISS:     750171  HIT %:    67.3902  MISS %:    32.6098   MPKI: 3.75086
L2C WRITEBACK ACCESS:     418274  HIT:     347663  MISS:      70611  HIT %:    83.1185  MISS %:    16.8815   MPKI: 0.353055
PSCL5 TOTAL     ACCESS:      62949  HIT:      62949  MISS:          0  HIT %:        100  MISS %:          0   MPKI: 0
PSCL5 LOAD      ACCESS:          0  HIT:          0  MISS:          0  HIT %:       -nan  MISS %:       -nan   MPKI: 0
PSCL5 RFO       ACCESS:          0  HIT:          0  MISS:          0  HIT %:       -nan  MISS %:       -nan   MPKI: 0
PSCL5 PREFETCH  ACCESS:          0  HIT:          0  MISS:          0  HIT %:       -nan  MISS %:       -nan   MPKI: 0
PSCL5 WRITEBACK ACCESS:          0  HIT:          0  MISS:          0  HIT %:       -nan  MISS %:       -nan   MPKI: 0
PSCL4 TOTAL     ACCESS:      62949  HIT:      62949  MISS:          0  HIT %:        100  MISS %:          0   MPKI: 0
PSCL4 LOAD      ACCESS:          0  HIT:          0  MISS:          0  HIT %:       -nan  MISS %:       -nan   MPKI: 0
PSCL4 RFO       ACCESS:          0  HIT:          0  MISS:          0  HIT %:       -nan  MISS %:       -nan   MPKI: 0
PSCL4 PREFETCH  ACCESS:          0  HIT:          0  MISS:          0  HIT %:       -nan  MISS %:       -nan   MPKI: 0
PSCL4 WRITEBACK ACCESS:          0  HIT:          0  MISS:          0  HIT %:       -nan  MISS %:       -nan   MPKI: 0
PSCL3 TOTAL     ACCESS:      62946  HIT:      62940  MISS:          6  HIT %:    99.9905  MISS %: 0.00953198   MPKI: 3e-05
PSCL3 LOAD      ACCESS:          0  HIT:          0  MISS:          0  HIT %:       -nan  MISS %:       -nan   MPKI: 0
PSCL3 RFO       ACCESS:          0  HIT:          0  MISS:          0  HIT %:       -nan  MISS %:       -nan   MPKI: 0
PSCL3 PREFETCH  ACCESS:          0  HIT:          0  MISS:          0  HIT %:       -nan  MISS %:       -nan   MPKI: 0
PSCL3 WRITEBACK ACCESS:          0  HIT:          0  MISS:          0  HIT %:       -nan  MISS %:       -nan   MPKI: 0
PSCL2 TOTAL     ACCESS:      62908  HIT:      62782  MISS:        126  HIT %:    99.7997  MISS %:   0.200292   MPKI: 0.00063
PSCL2 LOAD      ACCESS:          0  HIT:          0  MISS:          0  HIT %:       -nan  MISS %:       -nan   MPKI: 0
PSCL2 RFO       ACCESS:          0  HIT:          0  MISS:          0  HIT %:       -nan  MISS %:       -nan   MPKI: 0
PSCL2 PREFETCH  ACCESS:          0  HIT:          0  MISS:          0  HIT %:       -nan  MISS %:       -nan   MPKI: 0
PSCL2 WRITEBACK ACCESS:          0  HIT:          0  MISS:          0  HIT %:       -nan  MISS %:       -nan   MPKI: 0
LLC TOTAL     ACCESS:    1687344  HIT:     401859  MISS:    1285485  HIT %:    23.8161  MISS %:    76.1839   MPKI: 6.42743
LLC LOAD      ACCESS:      37937  HIT:         36  MISS:      37901  HIT %:  0.0948942  MISS %:    99.9051   MPKI: 0.189505
LLC RFO       ACCESS:     418383  HIT:          0  MISS:     418383  HIT %:          0  MISS %:        100   MPKI: 2.09192
LLC PREFETCH  ACCESS:     806823  HIT:        173  MISS:     806650  HIT %:  0.0214421  MISS %:    99.9786   MPKI: 4.03325
LLC WRITEBACK ACCESS:     417947  HIT:     401526  MISS:      16421  HIT %:     96.071  MISS %:    3.92897   MPKI: 0.082105

RAW hits: 6763156
Loads Generated: 54564109
Loads sent to L1D: 47800953
Stores Generated: 25053029
Stores sent to L1D: 25053030

CPU 2 cumulative IPC: 0.525003 instructions: 200059008 cycles: 381062892
ITLB TOTAL     ACCESS:   33973142  HIT:   33973140  MISS:          2  HIT %:        100  MISS %:  5.887e-06   MPKI: 9.99705e-06
ITLB LOAD      ACCESS:          0  HIT:          0  MISS:          0  HIT %:       -nan  MISS %:       -nan   MPKI: 0
ITLB RFO       ACCESS:          0  HIT:          0  MISS:          0  HIT %:       -nan  MISS %:       -nan   MPKI: 0
ITLB PREFETCH  ACCESS:          0  HIT:          0  MISS:          0  HIT %:       -nan  MISS %:       -nan   MPKI: 0
ITLB WRITEBACK ACCESS:          0  HIT:          0  MISS:          0  HIT %:       -nan  MISS %:       -nan   MPKI: 0
DTLB TOTAL     ACCESS:   53835166  HIT:   53805255  MISS:      29911  HIT %:    99.9444  MISS %:  0.0555603   MPKI: 0.149511
DTLB LOAD      ACCESS:          0  HIT:          0  MISS:          0  HIT %:       -nan  MISS %:       -nan   MPKI: 0
DTLB RFO       ACCESS:          0  HIT:          0  MISS:          0  HIT %:       -nan  MISS %:       -nan   MPKI: 0
DTLB PREFETCH  ACCESS:          0  HIT:          0  MISS:          0  HIT %:       -nan  MISS %:       -nan   MPKI: 0
DTLB WRITEBACK ACCESS:          0  HIT:          0  MISS:          0  HIT %:       -nan  MISS %:       -nan   MPKI: 0
STLB TOTAL     ACCESS:    5418687  HIT:    5389540  MISS:      29147  HIT %:    99.4621  MISS %:   0.537898   MPKI: 0.145692
STLB LOAD      ACCESS:          0  HIT:          0  MISS:          0  HIT %:       -nan  MISS %:       -nan   MPKI: 0
STLB RFO       ACCESS:          0  HIT:          0  MISS:          0  HIT %:       -nan  MISS %:       -nan   MPKI: 0
STLB PREFETCH  ACCESS:          0  HIT:          0  MISS:          0  HIT %:       -nan  MISS %:       -nan   MPKI: 0
STLB WRITEBACK ACCESS:          0  HIT:          0  MISS:          0  HIT %:       -nan  MISS %:       -nan   MPKI: 0
L1D TOTAL     ACCESS:   80216883  HIT:   78980514  MISS:    1236369  HIT %:    98.4587  MISS %:    1.54128   MPKI: 6.18002
L1D LOAD      ACCESS:   37656423  HIT:   37397308  MISS:     259115  HIT %:    99.3119  MISS %:   0.688103   MPKI: 1.29519
L1D RFO       ACCESS:   21557985  HIT:   21139578  MISS:     418407  HIT %:    98.0592  MISS %:    1.94084   MPKI: 2.09142
L1D PREFETCH  ACCESS:   21002475  HIT:   20443628  MISS:     558847  HIT %:    97.3391  MISS %:    2.66086   MPKI: 2.79341
L1D WRITEBACK ACCESS:          0  HIT:          0  MISS:          0  HIT %:       -nan  MISS %:       -nan   MPKI: 0
L1I TOTAL     ACCESS:   43081961  HIT:   43081925  MISS:         36  HIT %:    99.9999  MISS %: 8.35617e-05   MPKI: 0.000179947
L1I LOAD      ACCESS:   43081961  HIT:   43081925  MISS:         36  HIT %:    99.9999  MISS %: 8.35617e-05   MPKI: 0.000179947
L1I RFO       ACCESS:          0  HIT:          0  MISS:          0  HIT %:       -nan  MISS %:       -nan   MPKI: 0
L1I PREFETCH  ACCESS:          0  HIT:          0  MISS:          0  HIT %:       -nan  MISS %:       -nan   MPKI: 0
L1I WRITEBACK ACCESS:          0  HIT:          0  MISS:          0  HIT %:       -nan  MISS %:       -nan   MPKI: 0
L2C TOTAL     ACCESS:    3440311  HIT:    2101206  MISS:    1339105  HIT %:     61.076  MISS %:     38.924   MPKI: 6.69355
L2C LOAD      ACCESS:     224202  HIT:     129368  MISS:      94834  HIT %:    57.7015  MISS %:    42.2985   MPKI: 0.47403
L2C RFO       ACCESS:     418407  HIT:          0  MISS:     418407  HIT %:          0  MISS %:        100   MPKI: 2.09142
L2C PREFETCH  ACCESS:    2316703  HIT:    1566737  MISS:     749966  HIT %:    67.6279  MISS %:    32.3721   MPKI: 3.74872
L2C WRITEBACK ACCESS:     418275  HIT:     348632  MISS:      69643  HIT %:    83.3499  MISS %:    16.6501   MPKI: 0.348112
PSCL5 TOTAL     ACCESS:      62614  HIT:      62614  MISS:          0  HIT %:        100  MISS %:          0   MPKI: 0
PSCL5 LOAD      ACCESS:          0  HIT:          0  MISS:          0  HIT %:       -nan  MISS %:       -nan   MPKI: 0
PSCL5 RFO       ACCESS:          0  HIT:          0  MISS:          0  HIT %:       -nan  MISS %:       -nan   MPKI: 0
PSCL5 PREFETCH  ACCESS:          0  HIT:          0  MISS:          0  HIT %:       -nan  MISS %:       -nan   MPKI: 0
PSCL5 WRITEBACK ACCESS:          0  HIT:          0  MISS:          0  HIT %:       -nan  MISS %:       -nan   MPKI: 0
PSCL4 TOTAL     ACCESS:      62614  HIT:      62614  MISS:          0  HIT %:        100  MISS %:          0   MPKI: 0
PSCL4 LOAD      ACCESS:          0  HIT:          0  MISS:          0  HIT %:       -nan  MISS %:       -nan   MPKI: 0
PSCL4 RFO       ACCESS:          0  HIT:          0  MISS:          0  HIT %:       -nan  MISS %:       -nan   MPKI: 0
PSCL4 PREFETCH  ACCESS:          0  HIT:          0  MISS:          0  HIT %:       -nan  MISS %:       -nan   MPKI: 0
PSCL4 WRITEBACK ACCESS:          0  HIT:          0  MISS:          0  HIT %:       -nan  MISS %:       -nan   MPKI: 0
PSCL3 TOTAL     ACCESS:      62611  HIT:      62605  MISS:          6  HIT %:    99.9904  MISS %: 0.00958298   MPKI: 2.99912e-05
PSCL3 LOAD      ACCESS:          0  HIT:          0  MISS:          0  HIT %:       -nan  MISS %:       -nan   MPKI: 0
PSCL3 RFO       ACCESS:          0  HIT:          0  MISS:          0  HIT %:       -nan  MISS %:       -nan   MPKI: 0
PSCL3 PREFETCH  ACCESS:          0  HIT:          0  MISS:          0  HIT %:       -nan  MISS %:       -nan   MPKI: 0
PSCL3 WRITEBACK ACCESS:          0  HIT:          0  MISS:          0  HIT %:       -nan  MISS %:       -nan   MPKI: 0
PSCL2 TOTAL     ACCESS:      62575  HIT:      62449  MISS:        126  HIT %:    99.7986  MISS %:   0.201358   MPKI: 0.000629814
PSCL2 LOAD      ACCESS:          0  HIT:          0  MISS:          0  HIT %:       -nan  MISS %:       -nan   MPKI: 0
PSCL2 RFO       ACCESS:          0  HIT:          0  MISS:          0  HIT %:       -nan  MISS %:       -nan   MPKI: 0
PSCL2 PREFETCH  ACCESS:          0  HIT:          0  MISS:          0  HIT %:       -nan  MISS %:       -nan   MPKI: 0
PSCL2 WRITEBACK ACCESS:          0  HIT:          0  MISS:          0  HIT %:       -nan  MISS %:       -nan   MPKI: 0
LLC TOTAL     ACCESS:    1687313  HIT:     400683  MISS:    1286630  HIT %:    23.7468  MISS %:    76.2532   MPKI: 6.43125
LLC LOAD      ACCESS:      37418  HIT:         54  MISS:      37364  HIT %:   0.144316  MISS %:    99.8557   MPKI: 0.186765
LLC RFO       ACCESS:     418407  HIT:          0  MISS:     418407  HIT %:          0  MISS %:        100   MPKI: 2.09142
LLC PREFETCH  ACCESS:     807382  HIT:         86  MISS:     807296  HIT %:  0.0106517  MISS %:    99.9893   MPKI: 4.03529
LLC WRITEBACK ACCESS:     417851  HIT:     400420  MISS:      17431  HIT %:    95.8284  MISS %:    4.17158   MPKI: 0.0871293

RAW hits: 6765592
Loads Generated: 54579729
Loads sent to L1D: 47814136
Stores Generated: 25060367
Stores sent to L1D: 25060369

CPU 3 cumulative IPC: 0.525042 instructions: 200073943 cycles: 381062892
ITLB TOTAL     ACCESS:   33970902  HIT:   33970900  MISS:          2  HIT %:        100  MISS %: 5.88739e-06   MPKI: 9.9963e-06
ITLB LOAD      ACCESS:          0  HIT:          0  MISS:          0  HIT %:       -nan  MISS %:       -nan   MPKI: 0
ITLB RFO       ACCESS:          0  HIT:          0  MISS:          0  HIT %:       -nan  MISS %:       -nan   MPKI: 0
ITLB PREFETCH  ACCESS:          0  HIT:          0  MISS:          0  HIT %:       -nan  MISS %:       -nan   MPKI: 0
ITLB WRITEBACK ACCESS:          0  HIT:          0  MISS:          0  HIT %:       -nan  MISS %:       -nan   MPKI: 0
DTLB TOTAL     ACCESS:   53849013  HIT:   53819077  MISS:      29936  HIT %:    99.9444  MISS %:  0.0555925   MPKI: 0.149625
DTLB LOAD      ACCESS:          0  HIT:          0  MISS:          0  HIT %:       -nan  MISS %:       -nan   MPKI: 0
DTLB RFO       ACCESS:          0  HIT:          0  MISS:          0  HIT %:       -nan  MISS %:       -nan   MPKI: 0
DTLB PREFETCH  ACCESS:          0  HIT:          0  MISS:          0  HIT %:       -nan  MISS %:       -nan   MPKI: 0
DTLB WRITEBACK ACCESS:          0  HIT:          0  MISS:          0  HIT %:       -nan  MISS %:       -nan   MPKI: 0
STLB TOTAL     ACCESS:    5228207  HIT:    5199061  MISS:      29146  HIT %:    99.4425  MISS %:   0.557476   MPKI: 0.145676
STLB LOAD      ACCESS:          0  HIT:          0  MISS:          0  HIT %:       -nan  MISS %:       -nan   MPKI: 0
STLB RFO       ACCESS:          0  HIT:          0  MISS:          0  HIT %:       -nan  MISS %:       -nan   MPKI: 0
STLB PREFETCH  ACCESS:          0  HIT:          0  MISS:          0  HIT %:       -nan  MISS %:       -nan   MPKI: 0
STLB WRITEBACK ACCESS:          0  HIT:          0  MISS:          0  HIT %:       -nan  MISS %:       -nan   MPKI: 0
L1D TOTAL     ACCESS:   79356959  HIT:   78121092  MISS:    1235867  HIT %:    98.4426  MISS %:    1.55735   MPKI: 6.17705
L1D LOAD      ACCESS:   37663885  HIT:   37405090  MISS:     258795  HIT %:    99.3129  MISS %:   0.687117   MPKI: 1.2935
L1D RFO       ACCESS:   21559769  HIT:   21141362  MISS:     418407  HIT %:    98.0593  MISS %:    1.94068   MPKI: 2.09126
L1D PREFETCH  ACCESS:   20133305  HIT:   19574640  MISS:     558665  HIT %:    97.2252  MISS %:    2.77483   MPKI: 2.79229
L1D WRITEBACK ACCESS:          0  HIT:          0  MISS:          0  HIT %:       -nan  MISS %:       -nan   MPKI: 0
L1I TOTAL     ACCESS:   43079131  HIT:   43079095  MISS:         36  HIT %:    99.9999  MISS %: 8.35671e-05   MPKI: 0.000179933
L1I LOAD      ACCESS:   43079131  HIT:   43079095  MISS:         36  HIT %:    99.9999  MISS %: 8.35671e-05   MPKI: 0.000179933
L1I RFO       ACCESS:          0  HIT:          0  MISS:          0  HIT %:       -nan  MISS %:       -nan   MPKI: 0
L1I PREFETCH  ACCESS:          0  HIT:          0  MISS:          0  HIT %:       -nan  MISS %:       -nan   MPKI: 0
L1I WRITEBACK ACCESS:          0  HIT:          0  MISS:          0  HIT %:       -nan  MISS %:       -nan   MPKI: 0
L2C TOTAL     ACCESS:    3429381  HIT:    2089064  MISS:    1340317  HIT %:    60.9166  MISS %:    39.0834   MPKI: 6.69911
L2C LOAD      ACCESS:     224895  HIT:     129332  MISS:      95563  HIT %:    57.5077  MISS %:    42.4923   MPKI: 0.477638
L2C RFO       ACCESS:     418407  HIT:          0  MISS:     418407  HIT %:          0  MISS %:        100   MPKI: 2.09126
L2C PREFETCH  ACCESS:    2304953  HIT:    1556126  MISS:     748827  HIT %:    67.5123  MISS %:    32.4877   MPKI: 3.74275
L2C WRITEBACK ACCESS:     418284  HIT:     347021  MISS:      71263  HIT %:     82.963  MISS %:     17.037   MPKI: 0.356183
PSCL5 TOTAL     ACCESS:      62718  HIT:      62718  MISS:          0  HIT %:        100  MISS %:          0   MPKI: 0
PSCL5 LOAD      ACCESS:          0  HIT:          0  MISS:          0  HIT %:       -nan  MISS %:       -nan   MPKI: 0
PSCL5 RFO       ACCESS:          0  HIT:          0  MISS:          0  HIT %:       -nan  MISS %:       -nan   MPKI: 0
PSCL5 PREFETCH  ACCESS:          0  HIT:          0  MISS:          0  HIT %:       -nan  MISS %:       -nan   MPKI: 0
PSCL5 WRITEBACK ACCESS:          0  HIT:          0  MISS:          0  HIT %:       -nan  MISS %:       -nan   MPKI: 0
PSCL4 TOTAL     ACCESS:      62718  HIT:      62718  MISS:          0  HIT %:        100  MISS %:          0   MPKI: 0
PSCL4 LOAD      ACCESS:          0  HIT:          0  MISS:          0  HIT %:       -nan  MISS %:       -nan   MPKI: 0
PSCL4 RFO       ACCESS:          0  HIT:          0  MISS:          0  HIT %:       -nan  MISS %:       -nan   MPKI: 0
PSCL4 PREFETCH  ACCESS:          0  HIT:          0  MISS:          0  HIT %:       -nan  MISS %:       -nan   MPKI: 0
PSCL4 WRITEBACK ACCESS:          0  HIT:          0  MISS:          0  HIT %:       -nan  MISS %:       -nan   MPKI: 0
PSCL3 TOTAL     ACCESS:      62715  HIT:      62709  MISS:          6  HIT %:    99.9904  MISS %: 0.00956709   MPKI: 2.99889e-05
PSCL3 LOAD      ACCESS:          0  HIT:          0  MISS:          0  HIT %:       -nan  MISS %:       -nan   MPKI: 0
PSCL3 RFO       ACCESS:          0  HIT:          0  MISS:          0  HIT %:       -nan  MISS %:       -nan   MPKI: 0
PSCL3 PREFETCH  ACCESS:          0  HIT:          0  MISS:          0  HIT %:       -nan  MISS %:       -nan   MPKI: 0
PSCL3 WRITEBACK ACCESS:          0  HIT:          0  MISS:          0  HIT %:       -nan  MISS %:       -nan   MPKI: 0
PSCL2 TOTAL     ACCESS:      62653  HIT:      62527  MISS:        126  HIT %:    99.7989  MISS %:   0.201108   MPKI: 0.000629767
PSCL2 LOAD      ACCESS:          0  HIT:          0  MISS:          0  HIT %:       -nan  MISS %:       -nan   MPKI: 0
PSCL2 RFO       ACCESS:          0  HIT:          0  MISS:          0  HIT %:       -nan  MISS %:       -nan   MPKI: 0
PSCL2 PREFETCH  ACCESS:          0  HIT:          0  MISS:          0  HIT %:       -nan  MISS %:       -nan   MPKI: 0
PSCL2 WRITEBACK ACCESS:          0  HIT:          0  MISS:          0  HIT %:       -nan  MISS %:       -nan   MPKI: 0
LLC TOTAL     ACCESS:    1686579  HIT:     400168  MISS:    1286411  HIT %:    23.7266  MISS %:    76.2734   MPKI: 6.42968
LLC LOAD      ACCESS:      38301  HIT:         49  MISS:      38252  HIT %:   0.127934  MISS %:    99.8721   MPKI: 0.191189
LLC RFO       ACCESS:     418407  HIT:          0  MISS:     418407  HIT %:          0  MISS %:        100   MPKI: 2.09126
LLC PREFETCH  ACCESS:     806089  HIT:         58  MISS:     806031  HIT %: 0.00719524  MISS %:    99.9928   MPKI: 4.02867
LLC WRITEBACK ACCESS:     417525  HIT:     399940  MISS:      17585  HIT %:    95.7883  MISS %:    4.21172   MPKI: 0.0878925

RAW hits: 6766236
Loads Generated: 54583655
Loads sent to L1D: 47817433
Stores Generated: 25062248
Stores sent to L1D: 25062248

Region of Interest Statistics

CPU 0 cumulative IPC: 0.525124 instructions: 200000000 cycles: 380862587
ITLB TOTAL     ACCESS:   33960597  HIT:   33960595  MISS:          2  HIT %:        100  MISS %: 5.88918e-06   MPKI: 1e-05
ITLB LOAD TRANSLATION ACCESS:   33960597  HIT:   33960595  MISS:          2  HIT %:        100  MISS %: 5.88918e-06   MPKI: 1e-05
ITLB PREFETCH  REQUESTED:          0  ISSUED:          0  USEFUL:          0  USELESS:          0
ITLB USEFUL LOAD PREFETCHES:          0 PREFETCH ISSUED TO LOWER LEVEL:          0  ACCURACY: -nan
ITLB TIMELY PREFETCHES:          0 LATE PREFETCHES: 0 DROPPED PREFETCHES: 0
ITLB PREFETCHES SAME FILL-ORIGIN LEVEL: 0 DIFFERENT FILL-ORIGIN LEVEL: 0
ITLB AVERAGE MISS LATENCY: 934.5 cycles
ITLB RQ	ACCESS:   43095356	FORWARD:          0	MERGED:    9113391	TO_CACHE:   33981965

DTLB TOTAL     ACCESS:   53821964  HIT:   53792072  MISS:      29892  HIT %:    99.9445  MISS %:  0.0555387   MPKI: 0.14946
DTLB LOAD TRANSLATION ACCESS:   53821964  HIT:   53792072  MISS:      29892  HIT %:    99.9445  MISS %:  0.0555387   MPKI: 0.14946
DTLB PREFETCH  REQUESTED:          0  ISSUED:          0  USEFUL:          0  USELESS:          0
DTLB USEFUL LOAD PREFETCHES:          0 PREFETCH ISSUED TO LOWER LEVEL:          0  ACCURACY: -nan
DTLB TIMELY PREFETCHES:          0 LATE PREFETCHES: 0 DROPPED PREFETCHES: 0
DTLB PREFETCHES SAME FILL-ORIGIN LEVEL: 0 DIFFERENT FILL-ORIGIN LEVEL: 0
DTLB AVERAGE MISS LATENCY: 447.495 cycles
DTLB RQ	ACCESS:   61543890	FORWARD:          0	MERGED:    7627007	TO_CACHE:   53916883

STLB TOTAL     ACCESS:    5414021  HIT:    5384876  MISS:      29145  HIT %:    99.4617  MISS %:   0.538324   MPKI: 0.145725
STLB LOAD TRANSLATION ACCESS:      29894  HIT:      10017  MISS:      19877  HIT %:    33.5084  MISS %:    66.4916   MPKI: 0.099385
STLB TRANSLATION FROM L1D PREFETCHER ACCESS:    5384127  HIT:    5374859  MISS:       9268  HIT %:    99.8279  MISS %:   0.172136   MPKI: 0.04634
STLB PREFETCH  REQUESTED:          0  ISSUED:          0  USEFUL:       9267  USELESS:          2
STLB USEFUL LOAD PREFETCHES:       9267 PREFETCH ISSUED TO LOWER LEVEL:          0  ACCURACY: inf
STLB TIMELY PREFETCHES:       9267 LATE PREFETCHES: 783 DROPPED PREFETCHES: 34206
STLB PREFETCHES SAME FILL-ORIGIN LEVEL: 0 DIFFERENT FILL-ORIGIN LEVEL: 0
STLB AVERAGE MISS LATENCY: 545.293 cycles
STLB RQ	ACCESS:   25513979	FORWARD:          0	MERGED:   20057177	TO_CACHE:    5456802

STLB Hit, L1D data hit: 0
STLB Hit, L2C data hit: 0
STLB Hit, LLC data hit: 0
STLB Hit, LLC data miss: 0
STLB STLB hints to L2: 0
L1D TOTAL     ACCESS:   80212907  HIT:   78976860  MISS:    1236047  HIT %:     98.459  MISS %:    1.54096   MPKI: 6.18023
L1D LOAD      ACCESS:   37650437  HIT:   37394456  MISS:     255981  HIT %:    99.3201  MISS %:   0.679889   MPKI: 1.27991
L1D RFO       ACCESS:   21546654  HIT:   21128294  MISS:     418360  HIT %:    98.0584  MISS %:    1.94165   MPKI: 2.0918
L1D PREFETCH  ACCESS:   21015816  HIT:   20454110  MISS:     561706  HIT %:    97.3272  MISS %:    2.67278   MPKI: 2.80853
L1D PREFETCH  REQUESTED:   64128004  ISSUED:   54283130  USEFUL:     535640  USELESS:      26220
L1D USEFUL LOAD PREFETCHES:     535640 PREFETCH ISSUED TO LOWER LEVEL:    6807099  ACCURACY: 7.86884
L1D TIMELY PREFETCHES:     535640 LATE PREFETCHES: 34963 DROPPED PREFETCHES: 89659
L1D PREFETCHES SAME FILL-ORIGIN LEVEL: 632836 DIFFERENT FILL-ORIGIN LEVEL: 6174263
L1D AVERAGE MISS LATENCY: 692.201 cycles
L1D RQ	ACCESS:   47829258	FORWARD:          0	MERGED:    9883782	TO_CACHE:   37916626
L1D WQ	ACCESS:   25069261	FORWARD:      28850	MERGED:    1441997	TO_CACHE:   23627264
L1D PQ	ACCESS:   28799049	FORWARD:          0	MERGED:    3314968	TO_CACHE:   25484081

L1D UNIQUE REGIONS ACCESSED: 0
L1D REGIONS CONFLICTS: 0
L1D Cross Page Prefetch Requests: 2038104
L1D Same Page Prefetch Requests: 34584272
L1D ROI Sum of L1D PQ occupancy: 592172304
L1D PREFETCHES PUSHED FROM L2C: 0
L1I TOTAL     ACCESS:   43068233  HIT:   43068197  MISS:         36  HIT %:    99.9999  MISS %: 8.35883e-05   MPKI: 0.00018
L1I LOAD      ACCESS:   43068233  HIT:   43068197  MISS:         36  HIT %:    99.9999  MISS %: 8.35883e-05   MPKI: 0.00018
L1I PREFETCH  REQUESTED:          0  ISSUED:          0  USEFUL:          0  USELESS:          0
L1I USEFUL LOAD PREFETCHES:          0 PREFETCH ISSUED TO LOWER LEVEL:          0  ACCURACY: -nan
L1I TIMELY PREFETCHES:          0 LATE PREFETCHES: 0 DROPPED PREFETCHES: 0
L1I PREFETCHES SAME FILL-ORIGIN LEVEL: 0 DIFFERENT FILL-ORIGIN LEVEL: 0
L1I AVERAGE MISS LATENCY: 896.806 cycles
L1I RQ	ACCESS:   56770175	FORWARD:          0	MERGED:   13674819	TO_CACHE:   43095356

BTB TOTAL     ACCESS:   12980594  HIT:   11531335  MISS:    1449259  HIT %:    88.8352  MISS %:    11.1648   MPKI: 7.24629
BTB BRANCH_DIRECT_JUMP	ACCESS:    1449236  HIT:    1449228  MISS:          8
BTB BRANCH_INDIRECT	ACCESS:          0  HIT:          0  MISS:          0
BTB BRANCH_CONDITIONAL	ACCESS:    5734530  HIT:    5734500  MISS:         30
BTB BRANCH_DIRECT_CALL	ACCESS:    2898415  HIT:    2898405  MISS:         10
BTB BRANCH_INDIRECT_CALL	ACCESS:          0  HIT:          0  MISS:          0
BTB BRANCH_RETURN	ACCESS:    2898413  HIT:    1449202  MISS:    1449211
BTB BRANCH_OTHER ACCESS:          0  HIT:          0  MISS:          0

L2C TOTAL     ACCESS:    3436520  HIT:    2095791  MISS:    1340729  HIT %:    60.9859  MISS %:    39.0141   MPKI: 6.70364
L2C LOAD      ACCESS:     221052  HIT:     127057  MISS:      93995  HIT %:    57.4783  MISS %:    42.5217   MPKI: 0.469975
L2C DATA LOAD MPKI: 0.469795
L2C INSTRUCTION LOAD MPKI: 0.00018
L2C RFO       ACCESS:     418360  HIT:          0  MISS:     418360  HIT %:          0  MISS %:        100   MPKI: 2.0918
L2C PREFETCH  ACCESS:    2314807  HIT:    1564007  MISS:     750800  HIT %:    67.5653  MISS %:    32.4347   MPKI: 3.754
L2C DATA PREFETCH MPKI: 3.754
L2C INSTRUCTION PREFETCH MPKI: 0
L2C WRITEBACK ACCESS:     418231  HIT:     346905  MISS:      71326  HIT %:    82.9458  MISS %:    17.0542   MPKI: 0.35663
L2C LOAD TRANSLATION ACCESS:      19792  HIT:      15499  MISS:       4293  HIT %:    78.3094  MISS %:    21.6906   MPKI: 0.021465
L2C TRANSLATION FROM L1D PREFETCHER ACCESS:      44278  HIT:      42323  MISS:       1955  HIT %:    95.5847  MISS %:    4.41529   MPKI: 0.009775
L2C PREFETCH  REQUESTED:          0  ISSUED:          0  USEFUL:     128836  USELESS:     624235
L2C USEFUL LOAD PREFETCHES:     128836 PREFETCH ISSUED TO LOWER LEVEL:     807213  ACCURACY: 15.9606
L2C TIMELY PREFETCHES:     128836 LATE PREFETCHES: 56309 DROPPED PREFETCHES: 0
L2C PREFETCHES SAME FILL-ORIGIN LEVEL: 625910 DIFFERENT FILL-ORIGIN LEVEL: 0
L2C AVERAGE MISS LATENCY: 1232.84 cycles
L2C RQ	ACCESS:     703556	FORWARD:          0	MERGED:          0	TO_CACHE:     703554
L2C WQ	ACCESS:     418297	FORWARD:          2	MERGED:          0	TO_CACHE:     418297
L2C PQ	ACCESS:    3965952	FORWARD:          0	MERGED:      54320	TO_CACHE:    3911632

L2C Instructions Evicting Data 36
L2C Translations Evicting Data 6232
L2C Data Evicting Data 1257241
L2C Instructions Evicting Instructions 0
L2C Translations Evicting Instructions 0
L2C Data Evicting Instructions 34
L2C Instructions Evicting Translations 0
L2C Translations Evicting Translations 16
L2C Data Evicting Translations 6016
L2C Dense regions hint from L2: 0
PSCL5 TOTAL     ACCESS:      63973  HIT:      63973  MISS:          0  HIT %:        100  MISS %:          0   MPKI: 0
PSCL5 LOAD TRANSLATION ACCESS:      19716  HIT:      19716  MISS:          0  HIT %:        100  MISS %:          0   MPKI: 0
PSCL5 TRANSLATION FROM L1D PREFETCHER ACCESS:      44257  HIT:      44257  MISS:          0  HIT %:        100  MISS %:          0   MPKI: 0
PSCL5 PREFETCH  REQUESTED:          0  ISSUED:          0  USEFUL:          0  USELESS:          0
PSCL5 USEFUL LOAD PREFETCHES:          0 PREFETCH ISSUED TO LOWER LEVEL:          0  ACCURACY: -nan
PSCL5 TIMELY PREFETCHES:          0 LATE PREFETCHES: 0 DROPPED PREFETCHES: 0
PSCL5 PREFETCHES SAME FILL-ORIGIN LEVEL: 0 DIFFERENT FILL-ORIGIN LEVEL: 0

PSCL4 TOTAL     ACCESS:      63973  HIT:      63973  MISS:          0  HIT %:        100  MISS %:          0   MPKI: 0
PSCL4 LOAD TRANSLATION ACCESS:      19716  HIT:      19716  MISS:          0  HIT %:        100  MISS %:          0   MPKI: 0
PSCL4 TRANSLATION FROM L1D PREFETCHER ACCESS:      44257  HIT:      44257  MISS:          0  HIT %:        100  MISS %:          0   MPKI: 0
PSCL4 PREFETCH  REQUESTED:          0  ISSUED:          0  USEFUL:          0  USELESS:          0
PSCL4 USEFUL LOAD PREFETCHES:          0 PREFETCH ISSUED TO LOWER LEVEL:          0  ACCURACY: -nan
PSCL4 TIMELY PREFETCHES:          0 LATE PREFETCHES: 0 DROPPED PREFETCHES: 0
PSCL4 PREFETCHES SAME FILL-ORIGIN LEVEL: 0 DIFFERENT FILL-ORIGIN LEVEL: 0

PSCL3 TOTAL     ACCESS:      63970  HIT:      63964  MISS:          6  HIT %:    99.9906  MISS %:  0.0093794   MPKI: 3e-05
PSCL3 LOAD TRANSLATION ACCESS:      19716  HIT:      19710  MISS:          6  HIT %:    99.9696  MISS %:  0.0304321   MPKI: 3e-05
PSCL3 TRANSLATION FROM L1D PREFETCHER ACCESS:      44254  HIT:      44254  MISS:          0  HIT %:        100  MISS %:          0   MPKI: 0
PSCL3 PREFETCH  REQUESTED:          0  ISSUED:          0  USEFUL:          0  USELESS:          0
PSCL3 USEFUL LOAD PREFETCHES:          0 PREFETCH ISSUED TO LOWER LEVEL:          0  ACCURACY: -nan
PSCL3 TIMELY PREFETCHES:          0 LATE PREFETCHES: 0 DROPPED PREFETCHES: 0
PSCL3 PREFETCHES SAME FILL-ORIGIN LEVEL: 0 DIFFERENT FILL-ORIGIN LEVEL: 0

PSCL2 TOTAL     ACCESS:      63928  HIT:      63802  MISS:        126  HIT %:    99.8029  MISS %:   0.197097   MPKI: 0.00063
PSCL2 LOAD TRANSLATION ACCESS:      19730  HIT:      19604  MISS:        126  HIT %:    99.3614  MISS %:   0.638621   MPKI: 0.00063
PSCL2 TRANSLATION FROM L1D PREFETCHER ACCESS:      44198  HIT:      44198  MISS:          0  HIT %:        100  MISS %:          0   MPKI: 0
PSCL2 PREFETCH  REQUESTED:          0  ISSUED:          0  USEFUL:          0  USELESS:          0
PSCL2 USEFUL LOAD PREFETCHES:          0 PREFETCH ISSUED TO LOWER LEVEL:          0  ACCURACY: -nan
PSCL2 TIMELY PREFETCHES:          0 LATE PREFETCHES: 0 DROPPED PREFETCHES: 0
PSCL2 PREFETCHES SAME FILL-ORIGIN LEVEL: 0 DIFFERENT FILL-ORIGIN LEVEL: 0

LLC TOTAL     ACCESS:    1687321  HIT:     401360  MISS:    1285961  HIT %:    23.7868  MISS %:    76.2132   MPKI: 6.4298
LLC LOAD      ACCESS:      37686  HIT:         52  MISS:      37634  HIT %:   0.137982  MISS %:     99.862   MPKI: 0.18817
LLC RFO       ACCESS:     418360  HIT:          0  MISS:     418360  HIT %:          0  MISS %:        100   MPKI: 2.0918
LLC PREFETCH  ACCESS:     807109  HIT:        188  MISS:     806921  HIT %:   0.023293  MISS %:    99.9767   MPKI: 4.0346
LLC WRITEBACK ACCESS:     417918  HIT:     401001  MISS:      16917  HIT %:    95.9521  MISS %:    4.04792   MPKI: 0.084585
LLC LOAD TRANSLATION ACCESS:       4293  HIT:         57  MISS:       4236  HIT %:    1.32774  MISS %:    98.6723   MPKI: 0.02118
LLC TRANSLATION FROM L1D PREFETCHER ACCESS:       1955  HIT:         62  MISS:       1893  HIT %:    3.17136  MISS %:    96.8286   MPKI: 0.009465
LLC PREFETCH  REQUESTED:          0  ISSUED:          0  USEFUL:        198  USELESS:    3242944
LLC USEFUL LOAD PREFETCHES:        198 PREFETCH ISSUED TO LOWER LEVEL:  204456685  ACCURACY: 9.6842e-05
LLC TIMELY PREFETCHES:        198 LATE PREFETCHES: 0 DROPPED PREFETCHES: 0
LLC PREFETCHES SAME FILL-ORIGIN LEVEL: 0 DIFFERENT FILL-ORIGIN LEVEL: 0
LLC AVERAGE MISS LATENCY: 4325.67 cycles
LLC RQ	ACCESS:    1849981	FORWARD:          0	MERGED:          0	TO_CACHE:    1849981
LLC WQ	ACCESS:    1671312	FORWARD:          0	MERGED:          0	TO_CACHE:    1671312
LLC PQ	ACCESS:    3227507	FORWARD:          0	MERGED:          0	TO_CACHE:    3227507

LLC Dense regions hint to LLC: 0

RAW hits: 6763223
Loads Generated: 54563975
Loads sent to L1D: 47800751
Stores Generated: 25053104
Stores sent to L1D: 25053105
Major fault: 0 Minor fault: 17838
Allocated PAGES: 71352

CPU 1 cumulative IPC: 0.524848 instructions: 200000000 cycles: 381062891
ITLB TOTAL     ACCESS:   33961975  HIT:   33961973  MISS:          2  HIT %:        100  MISS %: 5.88894e-06   MPKI: 1e-05
ITLB LOAD TRANSLATION ACCESS:   33961975  HIT:   33961973  MISS:          2  HIT %:        100  MISS %: 5.88894e-06   MPKI: 1e-05
ITLB PREFETCH  REQUESTED:          0  ISSUED:          0  USEFUL:          0  USELESS:          0
ITLB USEFUL LOAD PREFETCHES:          0 PREFETCH ISSUED TO LOWER LEVEL:          0  ACCURACY: -nan
ITLB TIMELY PREFETCHES:          0 LATE PREFETCHES: 0 DROPPED PREFETCHES: 0
ITLB PREFETCHES SAME FILL-ORIGIN LEVEL: 0 DIFFERENT FILL-ORIGIN LEVEL: 0
ITLB AVERAGE MISS LATENCY: 325.5 cycles
ITLB RQ	ACCESS:   43068720	FORWARD:          0	MERGED:    9106746	TO_CACHE:   33961974

DTLB TOTAL     ACCESS:   53819570  HIT:   53789671  MISS:      29899  HIT %:    99.9444  MISS %:  0.0555541   MPKI: 0.149495
DTLB LOAD TRANSLATION ACCESS:   53819570  HIT:   53789671  MISS:      29899  HIT %:    99.9444  MISS %:  0.0555541   MPKI: 0.149495
DTLB PREFETCH  REQUESTED:          0  ISSUED:          0  USEFUL:          0  USELESS:          0
DTLB USEFUL LOAD PREFETCHES:          0 PREFETCH ISSUED TO LOWER LEVEL:          0  ACCURACY: -nan
DTLB TIMELY PREFETCHES:          0 LATE PREFETCHES: 0 DROPPED PREFETCHES: 0
DTLB PREFETCHES SAME FILL-ORIGIN LEVEL: 0 DIFFERENT FILL-ORIGIN LEVEL: 0
DTLB AVERAGE MISS LATENCY: 453.716 cycles
DTLB RQ	ACCESS:   61502000	FORWARD:          0	MERGED:    7620672	TO_CACHE:   53881328

STLB TOTAL     ACCESS:    5419088  HIT:    5389943  MISS:      29145  HIT %:    99.4622  MISS %:   0.537821   MPKI: 0.145725
STLB LOAD TRANSLATION ACCESS:      29901  HIT:       9987  MISS:      19914  HIT %:    33.4002  MISS %:    66.5998   MPKI: 0.09957
STLB TRANSLATION FROM L1D PREFETCHER ACCESS:    5389187  HIT:    5379956  MISS:       9231  HIT %:    99.8287  MISS %:   0.171287   MPKI: 0.046155
STLB PREFETCH  REQUESTED:          0  ISSUED:          0  USEFUL:       9228  USELESS:          2
STLB USEFUL LOAD PREFETCHES:       9228 PREFETCH ISSUED TO LOWER LEVEL:          0  ACCURACY: inf
STLB TIMELY PREFETCHES:       9228 LATE PREFETCHES: 800 DROPPED PREFETCHES: 33177
STLB PREFETCHES SAME FILL-ORIGIN LEVEL: 0 DIFFERENT FILL-ORIGIN LEVEL: 0
STLB AVERAGE MISS LATENCY: 552.213 cycles
STLB RQ	ACCESS:   25529613	FORWARD:          0	MERGED:   20071303	TO_CACHE:    5458310

STLB Hit, L1D data hit: 0
STLB Hit, L2C data hit: 0
STLB Hit, LLC data hit: 0
STLB Hit, LLC data miss: 0
STLB STLB hints to L2: 0
L1D TOTAL     ACCESS:   80236731  HIT:   79000245  MISS:    1236486  HIT %:     98.459  MISS %:    1.54105   MPKI: 6.18243
L1D LOAD      ACCESS:   37645447  HIT:   37388808  MISS:     256639  HIT %:    99.3183  MISS %:   0.681727   MPKI: 1.2832
L1D RFO       ACCESS:   21550496  HIT:   21132113  MISS:     418383  HIT %:    98.0586  MISS %:    1.94141   MPKI: 2.09192
L1D PREFETCH  ACCESS:   21040788  HIT:   20479324  MISS:     561464  HIT %:    97.3315  MISS %:    2.66846   MPKI: 2.80732
L1D PREFETCH  REQUESTED:   64016676  ISSUED:   54311871  USEFUL:     534989  USELESS:      26526
L1D USEFUL LOAD PREFETCHES:     534989 PREFETCH ISSUED TO LOWER LEVEL:    6646840  ACCURACY: 8.04877
L1D TIMELY PREFETCHES:     534989 LATE PREFETCHES: 34808 DROPPED PREFETCHES: 88495
L1D PREFETCHES SAME FILL-ORIGIN LEVEL: 624073 DIFFERENT FILL-ORIGIN LEVEL: 6022767
L1D AVERAGE MISS LATENCY: 690.238 cycles
L1D RQ	ACCESS:   47800953	FORWARD:          0	MERGED:    9882214	TO_CACHE:   37889910
L1D WQ	ACCESS:   25053030	FORWARD:      28829	MERGED:    1440940	TO_CACHE:   23612090
L1D PQ	ACCESS:   28812159	FORWARD:          0	MERGED:    3312447	TO_CACHE:   25499712

L1D UNIQUE REGIONS ACCESSED: 0
L1D REGIONS CONFLICTS: 0
L1D Cross Page Prefetch Requests: 2038374
L1D Same Page Prefetch Requests: 34596506
L1D ROI Sum of L1D PQ occupancy: 589632965
L1D PREFETCHES PUSHED FROM L2C: 0
L1I TOTAL     ACCESS:   43068710  HIT:   43068674  MISS:         36  HIT %:    99.9999  MISS %: 8.35874e-05   MPKI: 0.00018
L1I LOAD      ACCESS:   43068710  HIT:   43068674  MISS:         36  HIT %:    99.9999  MISS %: 8.35874e-05   MPKI: 0.00018
L1I PREFETCH  REQUESTED:          0  ISSUED:          0  USEFUL:          0  USELESS:          0
L1I USEFUL LOAD PREFETCHES:          0 PREFETCH ISSUED TO LOWER LEVEL:          0  ACCURACY: -nan
L1I TIMELY PREFETCHES:          0 LATE PREFETCHES: 0 DROPPED PREFETCHES: 0
L1I PREFETCHES SAME FILL-ORIGIN LEVEL: 0 DIFFERENT FILL-ORIGIN LEVEL: 0
L1I AVERAGE MISS LATENCY: 311.167 cycles
L1I RQ	ACCESS:   56736541	FORWARD:          0	MERGED:   13667821	TO_CACHE:   43068720

BTB TOTAL     ACCESS:   12980515  HIT:   11531274  MISS:    1449241  HIT %:    88.8353  MISS %:    11.1647   MPKI: 7.2462
BTB BRANCH_DIRECT_JUMP	ACCESS:    1449216  HIT:    1449208  MISS:          8
BTB BRANCH_INDIRECT	ACCESS:          0  HIT:          0  MISS:          0
BTB BRANCH_CONDITIONAL	ACCESS:    5734550  HIT:    5734519  MISS:         31
BTB BRANCH_DIRECT_CALL	ACCESS:    2898375  HIT:    2898365  MISS:         10
BTB BRANCH_INDIRECT_CALL	ACCESS:          0  HIT:          0  MISS:          0
BTB BRANCH_RETURN	ACCESS:    2898374  HIT:    1449182  MISS:    1449192
BTB BRANCH_OTHER ACCESS:          0  HIT:          0  MISS:          0

L2C TOTAL     ACCESS:    3422026  HIT:    2082018  MISS:    1340008  HIT %:    60.8417  MISS %:    39.1583   MPKI: 6.70004
L2C LOAD      ACCESS:     221865  HIT:     127276  MISS:      94589  HIT %:    57.3664  MISS %:    42.6336   MPKI: 0.472945
L2C DATA LOAD MPKI: 0.472765
L2C INSTRUCTION LOAD MPKI: 0.00018
L2C RFO       ACCESS:     418383  HIT:          0  MISS:     418383  HIT %:          0  MISS %:        100   MPKI: 2.09192
L2C PREFETCH  ACCESS:    2300448  HIT:    1550277  MISS:     750171  HIT %:    67.3902  MISS %:    32.6098   MPKI: 3.75086
L2C DATA PREFETCH MPKI: 3.75086
L2C INSTRUCTION PREFETCH MPKI: 0
L2C WRITEBACK ACCESS:     418274  HIT:     347663  MISS:      70611  HIT %:    83.1185  MISS %:    16.8815   MPKI: 0.353055
L2C LOAD TRANSLATION ACCESS:      19816  HIT:      15507  MISS:       4309  HIT %:    78.2549  MISS %:    21.7451   MPKI: 0.021545
L2C TRANSLATION FROM L1D PREFETCHER ACCESS:      43240  HIT:      41295  MISS:       1945  HIT %:    95.5019  MISS %:    4.49815   MPKI: 0.009725
L2C PREFETCH  REQUESTED:          0  ISSUED:          0  USEFUL:     128988  USELESS:     623436
L2C USEFUL LOAD PREFETCHES:     128988 PREFETCH ISSUED TO LOWER LEVEL:     806823  ACCURACY: 15.9871
L2C TIMELY PREFETCHES:     128988 LATE PREFETCHES: 56652 DROPPED PREFETCHES: 0
L2C PREFETCHES SAME FILL-ORIGIN LEVEL: 622346 DIFFERENT FILL-ORIGIN LEVEL: 0
L2C AVERAGE MISS LATENCY: 1232.36 cycles
L2C RQ	ACCESS:     703306	FORWARD:          0	MERGED:          0	TO_CACHE:     703304
L2C WQ	ACCESS:     418274	FORWARD:          2	MERGED:          0	TO_CACHE:     418274
L2C PQ	ACCESS:    3946829	FORWARD:          0	MERGED:      54044	TO_CACHE:    3892785

L2C Instructions Evicting Data 36
L2C Translations Evicting Data 6224
L2C Data Evicting Data 1257073
L2C Instructions Evicting Instructions 0
L2C Translations Evicting Instructions 0
L2C Data Evicting Instructions 36
L2C Instructions Evicting Translations 0
L2C Translations Evicting Translations 30
L2C Data Evicting Translations 5998
L2C Dense regions hint from L2: 0
PSCL5 TOTAL     ACCESS:      62949  HIT:      62949  MISS:          0  HIT %:        100  MISS %:          0   MPKI: 0
PSCL5 LOAD TRANSLATION ACCESS:      19741  HIT:      19741  MISS:          0  HIT %:        100  MISS %:          0   MPKI: 0
PSCL5 TRANSLATION FROM L1D PREFETCHER ACCESS:      43208  HIT:      43208  MISS:          0  HIT %:        100  MISS %:          0   MPKI: 0
PSCL5 PREFETCH  REQUESTED:          0  ISSUED:          0  USEFUL:          0  USELESS:          0
PSCL5 USEFUL LOAD PREFETCHES:          0 PREFETCH ISSUED TO LOWER LEVEL:          0  ACCURACY: -nan
PSCL5 TIMELY PREFETCHES:          0 LATE PREFETCHES: 0 DROPPED PREFETCHES: 0
PSCL5 PREFETCHES SAME FILL-ORIGIN LEVEL: 0 DIFFERENT FILL-ORIGIN LEVEL: 0

PSCL4 TOTAL     ACCESS:      62949  HIT:      62949  MISS:          0  HIT %:        100  MISS %:          0   MPKI: 0
PSCL4 LOAD TRANSLATION ACCESS:      19741  HIT:      19741  MISS:          0  HIT %:        100  MISS %:          0   MPKI: 0
PSCL4 TRANSLATION FROM L1D PREFETCHER ACCESS:      43208  HIT:      43208  MISS:          0  HIT %:        100  MISS %:          0   MPKI: 0
PSCL4 PREFETCH  REQUESTED:          0  ISSUED:          0  USEFUL:          0  USELESS:          0
PSCL4 USEFUL LOAD PREFETCHES:          0 PREFETCH ISSUED TO LOWER LEVEL:          0  ACCURACY: -nan
PSCL4 TIMELY PREFETCHES:          0 LATE PREFETCHES: 0 DROPPED PREFETCHES: 0
PSCL4 PREFETCHES SAME FILL-ORIGIN LEVEL: 0 DIFFERENT FILL-ORIGIN LEVEL: 0

PSCL3 TOTAL     ACCESS:      62946  HIT:      62940  MISS:          6  HIT %:    99.9905  MISS %: 0.00953198   MPKI: 3e-05
PSCL3 LOAD TRANSLATION ACCESS:      19741  HIT:      19735  MISS:          6  HIT %:    99.9696  MISS %:  0.0303936   MPKI: 3e-05
PSCL3 TRANSLATION FROM L1D PREFETCHER ACCESS:      43205  HIT:      43205  MISS:          0  HIT %:        100  MISS %:          0   MPKI: 0
PSCL3 PREFETCH  REQUESTED:          0  ISSUED:          0  USEFUL:          0  USELESS:          0
PSCL3 USEFUL LOAD PREFETCHES:          0 PREFETCH ISSUED TO LOWER LEVEL:          0  ACCURACY: -nan
PSCL3 TIMELY PREFETCHES:          0 LATE PREFETCHES: 0 DROPPED PREFETCHES: 0
PSCL3 PREFETCHES SAME FILL-ORIGIN LEVEL: 0 DIFFERENT FILL-ORIGIN LEVEL: 0

PSCL2 TOTAL     ACCESS:      62908  HIT:      62782  MISS:        126  HIT %:    99.7997  MISS %:   0.200292   MPKI: 0.00063
PSCL2 LOAD TRANSLATION ACCESS:      19756  HIT:      19630  MISS:        126  HIT %:    99.3622  MISS %:   0.637781   MPKI: 0.00063
PSCL2 TRANSLATION FROM L1D PREFETCHER ACCESS:      43152  HIT:      43152  MISS:          0  HIT %:        100  MISS %:          0   MPKI: 0
PSCL2 PREFETCH  REQUESTED:          0  ISSUED:          0  USEFUL:          0  USELESS:          0
PSCL2 USEFUL LOAD PREFETCHES:          0 PREFETCH ISSUED TO LOWER LEVEL:          0  ACCURACY: -nan
PSCL2 TIMELY PREFETCHES:          0 LATE PREFETCHES: 0 DROPPED PREFETCHES: 0
PSCL2 PREFETCHES SAME FILL-ORIGIN LEVEL: 0 DIFFERENT FILL-ORIGIN LEVEL: 0

LLC TOTAL     ACCESS:    1687344  HIT:     401859  MISS:    1285485  HIT %:    23.8161  MISS %:    76.1839   MPKI: 6.42743
LLC LOAD      ACCESS:      37937  HIT:         36  MISS:      37901  HIT %:  0.0948942  MISS %:    99.9051   MPKI: 0.189505
LLC RFO       ACCESS:     418383  HIT:          0  MISS:     418383  HIT %:          0  MISS %:        100   MPKI: 2.09192
LLC PREFETCH  ACCESS:     806823  HIT:        173  MISS:     806650  HIT %:  0.0214421  MISS %:    99.9786   MPKI: 4.03325
LLC WRITEBACK ACCESS:     417947  HIT:     401526  MISS:      16421  HIT %:     96.071  MISS %:    3.92897   MPKI: 0.082105
LLC LOAD TRANSLATION ACCESS:       4309  HIT:         64  MISS:       4245  HIT %:    1.48526  MISS %:    98.5147   MPKI: 0.021225
LLC TRANSLATION FROM L1D PREFETCHER ACCESS:       1945  HIT:         60  MISS:       1885  HIT %:    3.08483  MISS %:    96.9152   MPKI: 0.009425
LLC PREFETCH  REQUESTED:          0  ISSUED:          0  USEFUL:        198  USELESS:    3242944
LLC USEFUL LOAD PREFETCHES:        198 PREFETCH ISSUED TO LOWER LEVEL:  204456685  ACCURACY: 9.6842e-05
LLC TIMELY PREFETCHES:        198 LATE PREFETCHES: 0 DROPPED PREFETCHES: 0
LLC PREFETCHES SAME FILL-ORIGIN LEVEL: 0 DIFFERENT FILL-ORIGIN LEVEL: 0
LLC AVERAGE MISS LATENCY: 4327.27 cycles
LLC RQ	ACCESS:    1849981	FORWARD:          0	MERGED:          0	TO_CACHE:    1849981
LLC WQ	ACCESS:    1671312	FORWARD:          0	MERGED:          0	TO_CACHE:    1671312
LLC PQ	ACCESS:    3227507	FORWARD:          0	MERGED:          0	TO_CACHE:    3227507

LLC Dense regions hint to LLC: 0

RAW hits: 6763156
Loads Generated: 54564109
Loads sent to L1D: 47800953
Stores Generated: 25053029
Stores sent to L1D: 25053030
Major fault: 0 Minor fault: 17838
Allocated PAGES: 71352

CPU 2 cumulative IPC: 0.524982 instructions: 200000000 cycles: 380965169
ITLB TOTAL     ACCESS:   33963220  HIT:   33963218  MISS:          2  HIT %:        100  MISS %: 5.88872e-06   MPKI: 1e-05
ITLB LOAD TRANSLATION ACCESS:   33963220  HIT:   33963218  MISS:          2  HIT %:        100  MISS %: 5.88872e-06   MPKI: 1e-05
ITLB PREFETCH  REQUESTED:          0  ISSUED:          0  USEFUL:          0  USELESS:          0
ITLB USEFUL LOAD PREFETCHES:          0 PREFETCH ISSUED TO LOWER LEVEL:          0  ACCURACY: -nan
ITLB TIMELY PREFETCHES:          0 LATE PREFETCHES: 0 DROPPED PREFETCHES: 0
ITLB PREFETCHES SAME FILL-ORIGIN LEVEL: 0 DIFFERENT FILL-ORIGIN LEVEL: 0
ITLB AVERAGE MISS LATENCY: 854.5 cycles
ITLB RQ	ACCESS:   43081973	FORWARD:          0	MERGED:    9108832	TO_CACHE:   33973141

DTLB TOTAL     ACCESS:   53819372  HIT:   53789463  MISS:      29909  HIT %:    99.9444  MISS %:  0.0555729   MPKI: 0.149545
DTLB LOAD TRANSLATION ACCESS:   53819372  HIT:   53789463  MISS:      29909  HIT %:    99.9444  MISS %:  0.0555729   MPKI: 0.149545
DTLB PREFETCH  REQUESTED:          0  ISSUED:          0  USEFUL:          0  USELESS:          0
DTLB USEFUL LOAD PREFETCHES:          0 PREFETCH ISSUED TO LOWER LEVEL:          0  ACCURACY: -nan
DTLB TIMELY PREFETCHES:          0 LATE PREFETCHES: 0 DROPPED PREFETCHES: 0
DTLB PREFETCHES SAME FILL-ORIGIN LEVEL: 0 DIFFERENT FILL-ORIGIN LEVEL: 0
DTLB AVERAGE MISS LATENCY: 445.892 cycles
DTLB RQ	ACCESS:   61519655	FORWARD:          0	MERGED:    7623662	TO_CACHE:   53895993

STLB TOTAL     ACCESS:    5417595  HIT:    5388449  MISS:      29146  HIT %:     99.462  MISS %:   0.537988   MPKI: 0.14573
STLB LOAD TRANSLATION ACCESS:      29911  HIT:       9989  MISS:      19922  HIT %:    33.3957  MISS %:    66.6043   MPKI: 0.09961
STLB TRANSLATION FROM L1D PREFETCHER ACCESS:    5387684  HIT:    5378460  MISS:       9224  HIT %:    99.8288  MISS %:   0.171205   MPKI: 0.04612
STLB PREFETCH  REQUESTED:          0  ISSUED:          0  USEFUL:       9221  USELESS:          2
STLB USEFUL LOAD PREFETCHES:       9221 PREFETCH ISSUED TO LOWER LEVEL:          0  ACCURACY: inf
STLB TIMELY PREFETCHES:       9221 LATE PREFETCHES: 826 DROPPED PREFETCHES: 32818
STLB PREFETCHES SAME FILL-ORIGIN LEVEL: 0 DIFFERENT FILL-ORIGIN LEVEL: 0
STLB AVERAGE MISS LATENCY: 543.565 cycles
STLB RQ	ACCESS:   25508188	FORWARD:          0	MERGED:   20050668	TO_CACHE:    5457520

STLB Hit, L1D data hit: 0
STLB Hit, L2C data hit: 0
STLB Hit, LLC data hit: 0
STLB Hit, LLC data miss: 0
STLB STLB hints to L2: 0
L1D TOTAL     ACCESS:   80193155  HIT:   78956849  MISS:    1236306  HIT %:    98.4583  MISS %:    1.54166   MPKI: 6.18153
L1D LOAD      ACCESS:   37645119  HIT:   37386004  MISS:     259115  HIT %:    99.3117  MISS %:    0.68831   MPKI: 1.29557
L1D RFO       ACCESS:   21551192  HIT:   21132817  MISS:     418375  HIT %:    98.0587  MISS %:    1.94131   MPKI: 2.09187
L1D PREFETCH  ACCESS:   20996844  HIT:   20438028  MISS:     558816  HIT %:    97.3386  MISS %:    2.66143   MPKI: 2.79408
L1D PREFETCH  REQUESTED:   63978855  ISSUED:   54258626  USEFUL:     532489  USELESS:      26421
L1D USEFUL LOAD PREFETCHES:     532489 PREFETCH ISSUED TO LOWER LEVEL:    6659741  ACCURACY: 7.99564
L1D TIMELY PREFETCHES:     532489 LATE PREFETCHES: 34948 DROPPED PREFETCHES: 87015
L1D PREFETCHES SAME FILL-ORIGIN LEVEL: 626108 DIFFERENT FILL-ORIGIN LEVEL: 6033633
L1D AVERAGE MISS LATENCY: 690.278 cycles
L1D RQ	ACCESS:   47814136	FORWARD:          0	MERGED:    9884547	TO_CACHE:   37900752
L1D WQ	ACCESS:   25060369	FORWARD:      28837	MERGED:    1441466	TO_CACHE:   23618903
L1D PQ	ACCESS:   28780351	FORWARD:          0	MERGED:    3302076	TO_CACHE:   25478275

L1D UNIQUE REGIONS ACCESSED: 0
L1D REGIONS CONFLICTS: 0
L1D Cross Page Prefetch Requests: 2039881
L1D Same Page Prefetch Requests: 34563071
L1D ROI Sum of L1D PQ occupancy: 592706171
L1D PREFETCHES PUSHED FROM L2C: 0
L1I TOTAL     ACCESS:   43069169  HIT:   43069133  MISS:         36  HIT %:    99.9999  MISS %: 8.35865e-05   MPKI: 0.00018
L1I LOAD      ACCESS:   43069169  HIT:   43069133  MISS:         36  HIT %:    99.9999  MISS %: 8.35865e-05   MPKI: 0.00018
L1I PREFETCH  REQUESTED:          0  ISSUED:          0  USEFUL:          0  USELESS:          0
L1I USEFUL LOAD PREFETCHES:          0 PREFETCH ISSUED TO LOWER LEVEL:          0  ACCURACY: -nan
L1I TIMELY PREFETCHES:          0 LATE PREFETCHES: 0 DROPPED PREFETCHES: 0
L1I PREFETCHES SAME FILL-ORIGIN LEVEL: 0 DIFFERENT FILL-ORIGIN LEVEL: 0
L1I AVERAGE MISS LATENCY: 498 cycles
L1I RQ	ACCESS:   56756879	FORWARD:          0	MERGED:   13674906	TO_CACHE:   43081973

BTB TOTAL     ACCESS:   12980540  HIT:   11531294  MISS:    1449246  HIT %:    88.8352  MISS %:    11.1648   MPKI: 7.24623
BTB BRANCH_DIRECT_JUMP	ACCESS:    1449223  HIT:    1449215  MISS:          8
BTB BRANCH_INDIRECT	ACCESS:          0  HIT:          0  MISS:          0
BTB BRANCH_CONDITIONAL	ACCESS:    5734541  HIT:    5734511  MISS:         30
BTB BRANCH_DIRECT_CALL	ACCESS:    2898389  HIT:    2898379  MISS:         10
BTB BRANCH_INDIRECT_CALL	ACCESS:          0  HIT:          0  MISS:          0
BTB BRANCH_RETURN	ACCESS:    2898387  HIT:    1449189  MISS:    1449198
BTB BRANCH_OTHER ACCESS:          0  HIT:          0  MISS:          0

L2C TOTAL     ACCESS:    3440088  HIT:    2101057  MISS:    1339031  HIT %:    61.0757  MISS %:    38.9243   MPKI: 6.69515
L2C LOAD      ACCESS:     224202  HIT:     129368  MISS:      94834  HIT %:    57.7015  MISS %:    42.2985   MPKI: 0.47417
L2C DATA LOAD MPKI: 0.47399
L2C INSTRUCTION LOAD MPKI: 0.00018
L2C RFO       ACCESS:     418375  HIT:          0  MISS:     418375  HIT %:          0  MISS %:        100   MPKI: 2.09187
L2C PREFETCH  ACCESS:    2316545  HIT:    1566611  MISS:     749934  HIT %:     67.627  MISS %:     32.373   MPKI: 3.74967
L2C DATA PREFETCH MPKI: 3.74967
L2C INSTRUCTION PREFETCH MPKI: 0
L2C WRITEBACK ACCESS:     418243  HIT:     348610  MISS:      69633  HIT %:    83.3511  MISS %:    16.6489   MPKI: 0.348165
L2C LOAD TRANSLATION ACCESS:      19820  HIT:      15477  MISS:       4343  HIT %:    78.0878  MISS %:    21.9122   MPKI: 0.021715
L2C TRANSLATION FROM L1D PREFETCHER ACCESS:      42903  HIT:      40991  MISS:       1912  HIT %:    95.5434  MISS %:    4.45656   MPKI: 0.00956
L2C PREFETCH  REQUESTED:          0  ISSUED:          0  USEFUL:     131107  USELESS:     621157
L2C USEFUL LOAD PREFETCHES:     131107 PREFETCH ISSUED TO LOWER LEVEL:     807382  ACCURACY: 16.2385
L2C TIMELY PREFETCHES:     131107 LATE PREFETCHES: 57416 DROPPED PREFETCHES: 0
L2C PREFETCHES SAME FILL-ORIGIN LEVEL: 625005 DIFFERENT FILL-ORIGIN LEVEL: 0
L2C AVERAGE MISS LATENCY: 1234.43 cycles
L2C RQ	ACCESS:     705334	FORWARD:          0	MERGED:          0	TO_CACHE:     705333
L2C WQ	ACCESS:     418275	FORWARD:          1	MERGED:          0	TO_CACHE:     418275
L2C PQ	ACCESS:    3970071	FORWARD:          0	MERGED:      54276	TO_CACHE:    3915795

L2C Instructions Evicting Data 36
L2C Translations Evicting Data 6220
L2C Data Evicting Data 1257126
L2C Instructions Evicting Instructions 0
L2C Translations Evicting Instructions 0
L2C Data Evicting Instructions 35
L2C Instructions Evicting Translations 0
L2C Translations Evicting Translations 35
L2C Data Evicting Translations 6010
L2C Dense regions hint from L2: 0
PSCL5 TOTAL     ACCESS:      62613  HIT:      62613  MISS:          0  HIT %:        100  MISS %:          0   MPKI: 0
PSCL5 LOAD TRANSLATION ACCESS:      19745  HIT:      19745  MISS:          0  HIT %:        100  MISS %:          0   MPKI: 0
PSCL5 TRANSLATION FROM L1D PREFETCHER ACCESS:      42868  HIT:      42868  MISS:          0  HIT %:        100  MISS %:          0   MPKI: 0
PSCL5 PREFETCH  REQUESTED:          0  ISSUED:          0  USEFUL:          0  USELESS:          0
PSCL5 USEFUL LOAD PREFETCHES:          0 PREFETCH ISSUED TO LOWER LEVEL:          0  ACCURACY: -nan
PSCL5 TIMELY PREFETCHES:          0 LATE PREFETCHES: 0 DROPPED PREFETCHES: 0
PSCL5 PREFETCHES SAME FILL-ORIGIN LEVEL: 0 DIFFERENT FILL-ORIGIN LEVEL: 0

PSCL4 TOTAL     ACCESS:      62613  HIT:      62613  MISS:          0  HIT %:        100  MISS %:          0   MPKI: 0
PSCL4 LOAD TRANSLATION ACCESS:      19745  HIT:      19745  MISS:          0  HIT %:        100  MISS %:          0   MPKI: 0
PSCL4 TRANSLATION FROM L1D PREFETCHER ACCESS:      42868  HIT:      42868  MISS:          0  HIT %:        100  MISS %:          0   MPKI: 0
PSCL4 PREFETCH  REQUESTED:          0  ISSUED:          0  USEFUL:          0  USELESS:          0
PSCL4 USEFUL LOAD PREFETCHES:          0 PREFETCH ISSUED TO LOWER LEVEL:          0  ACCURACY: -nan
PSCL4 TIMELY PREFETCHES:          0 LATE PREFETCHES: 0 DROPPED PREFETCHES: 0
PSCL4 PREFETCHES SAME FILL-ORIGIN LEVEL: 0 DIFFERENT FILL-ORIGIN LEVEL: 0

PSCL3 TOTAL     ACCESS:      62610  HIT:      62604  MISS:          6  HIT %:    99.9904  MISS %: 0.00958313   MPKI: 3e-05
PSCL3 LOAD TRANSLATION ACCESS:      19745  HIT:      19739  MISS:          6  HIT %:    99.9696  MISS %:  0.0303874   MPKI: 3e-05
PSCL3 TRANSLATION FROM L1D PREFETCHER ACCESS:      42865  HIT:      42865  MISS:          0  HIT %:        100  MISS %:          0   MPKI: 0
PSCL3 PREFETCH  REQUESTED:          0  ISSUED:          0  USEFUL:          0  USELESS:          0
PSCL3 USEFUL LOAD PREFETCHES:          0 PREFETCH ISSUED TO LOWER LEVEL:          0  ACCURACY: -nan
PSCL3 TIMELY PREFETCHES:          0 LATE PREFETCHES: 0 DROPPED PREFETCHES: 0
PSCL3 PREFETCHES SAME FILL-ORIGIN LEVEL: 0 DIFFERENT FILL-ORIGIN LEVEL: 0

PSCL2 TOTAL     ACCESS:      62574  HIT:      62448  MISS:        126  HIT %:    99.7986  MISS %:   0.201362   MPKI: 0.00063
PSCL2 LOAD TRANSLATION ACCESS:      19760  HIT:      19634  MISS:        126  HIT %:    99.3623  MISS %:   0.637652   MPKI: 0.00063
PSCL2 TRANSLATION FROM L1D PREFETCHER ACCESS:      42814  HIT:      42814  MISS:          0  HIT %:        100  MISS %:          0   MPKI: 0
PSCL2 PREFETCH  REQUESTED:          0  ISSUED:          0  USEFUL:          0  USELESS:          0
PSCL2 USEFUL LOAD PREFETCHES:          0 PREFETCH ISSUED TO LOWER LEVEL:          0  ACCURACY: -nan
PSCL2 TIMELY PREFETCHES:          0 LATE PREFETCHES: 0 DROPPED PREFETCHES: 0
PSCL2 PREFETCHES SAME FILL-ORIGIN LEVEL: 0 DIFFERENT FILL-ORIGIN LEVEL: 0

LLC TOTAL     ACCESS:    1687207  HIT:     400642  MISS:    1286565  HIT %:    23.7459  MISS %:    76.2541   MPKI: 6.43283
LLC LOAD      ACCESS:      37418  HIT:         54  MISS:      37364  HIT %:   0.144316  MISS %:    99.8557   MPKI: 0.18682
LLC RFO       ACCESS:     418375  HIT:          0  MISS:     418375  HIT %:          0  MISS %:        100   MPKI: 2.09187
LLC PREFETCH  ACCESS:     807350  HIT:         86  MISS:     807264  HIT %:  0.0106521  MISS %:    99.9893   MPKI: 4.03632
LLC WRITEBACK ACCESS:     417809  HIT:     400379  MISS:      17430  HIT %:    95.8282  MISS %:    4.17176   MPKI: 0.08715
LLC LOAD TRANSLATION ACCESS:       4343  HIT:         65  MISS:       4278  HIT %:    1.49666  MISS %:    98.5033   MPKI: 0.02139
LLC TRANSLATION FROM L1D PREFETCHER ACCESS:       1912  HIT:         58  MISS:       1854  HIT %:    3.03347  MISS %:    96.9665   MPKI: 0.00927
LLC PREFETCH  REQUESTED:          0  ISSUED:          0  USEFUL:        198  USELESS:    3242944
LLC USEFUL LOAD PREFETCHES:        198 PREFETCH ISSUED TO LOWER LEVEL:  204456685  ACCURACY: 9.6842e-05
LLC TIMELY PREFETCHES:        198 LATE PREFETCHES: 0 DROPPED PREFETCHES: 0
LLC PREFETCHES SAME FILL-ORIGIN LEVEL: 0 DIFFERENT FILL-ORIGIN LEVEL: 0
LLC AVERAGE MISS LATENCY: 4323.64 cycles
LLC RQ	ACCESS:    1849981	FORWARD:          0	MERGED:          0	TO_CACHE:    1849981
LLC WQ	ACCESS:    1671312	FORWARD:          0	MERGED:          0	TO_CACHE:    1671312
LLC PQ	ACCESS:    3227507	FORWARD:          0	MERGED:          0	TO_CACHE:    3227507

LLC Dense regions hint to LLC: 0

RAW hits: 6763154
Loads Generated: 54564067
Loads sent to L1D: 47800913
Stores Generated: 25053054
Stores sent to L1D: 25053055
Major fault: 0 Minor fault: 17838
Allocated PAGES: 71352

CPU 3 cumulative IPC: 0.525016 instructions: 200000003 cycles: 380940556
ITLB TOTAL     ACCESS:   33958476  HIT:   33958474  MISS:          2  HIT %:        100  MISS %: 5.88955e-06   MPKI: 1e-05
ITLB LOAD TRANSLATION ACCESS:   33958476  HIT:   33958474  MISS:          2  HIT %:        100  MISS %: 5.88955e-06   MPKI: 1e-05
ITLB PREFETCH  REQUESTED:          0  ISSUED:          0  USEFUL:          0  USELESS:          0
ITLB USEFUL LOAD PREFETCHES:          0 PREFETCH ISSUED TO LOWER LEVEL:          0  ACCURACY: -nan
ITLB TIMELY PREFETCHES:          0 LATE PREFETCHES: 0 DROPPED PREFETCHES: 0
ITLB PREFETCHES SAME FILL-ORIGIN LEVEL: 0 DIFFERENT FILL-ORIGIN LEVEL: 0
ITLB AVERAGE MISS LATENCY: 1181.5 cycles
ITLB RQ	ACCESS:   43079142	FORWARD:          0	MERGED:    9108241	TO_CACHE:   33970901

DTLB TOTAL     ACCESS:   53829216  HIT:   53799282  MISS:      29934  HIT %:    99.9444  MISS %:  0.0556092   MPKI: 0.14967
DTLB LOAD TRANSLATION ACCESS:   53829216  HIT:   53799282  MISS:      29934  HIT %:    99.9444  MISS %:  0.0556092   MPKI: 0.14967
DTLB PREFETCH  REQUESTED:          0  ISSUED:          0  USEFUL:          0  USELESS:          0
DTLB USEFUL LOAD PREFETCHES:          0 PREFETCH ISSUED TO LOWER LEVEL:          0  ACCURACY: -nan
DTLB TIMELY PREFETCHES:          0 LATE PREFETCHES: 0 DROPPED PREFETCHES: 0
DTLB PREFETCHES SAME FILL-ORIGIN LEVEL: 0 DIFFERENT FILL-ORIGIN LEVEL: 0
DTLB AVERAGE MISS LATENCY: 454.802 cycles
DTLB RQ	ACCESS:   61529827	FORWARD:          0	MERGED:    7619815	TO_CACHE:   53910012

STLB TOTAL     ACCESS:    5227142  HIT:    5197997  MISS:      29145  HIT %:    99.4424  MISS %:    0.55757   MPKI: 0.145725
STLB LOAD TRANSLATION ACCESS:      29936  HIT:      10010  MISS:      19926  HIT %:     33.438  MISS %:     66.562   MPKI: 0.09963
STLB TRANSLATION FROM L1D PREFETCHER ACCESS:    5197206  HIT:    5187987  MISS:       9219  HIT %:    99.8226  MISS %:   0.177384   MPKI: 0.046095
STLB PREFETCH  REQUESTED:          0  ISSUED:          0  USEFUL:       9216  USELESS:          2
STLB USEFUL LOAD PREFETCHES:       9216 PREFETCH ISSUED TO LOWER LEVEL:          0  ACCURACY: inf
STLB TIMELY PREFETCHES:       9216 LATE PREFETCHES: 755 DROPPED PREFETCHES: 32967
STLB PREFETCHES SAME FILL-ORIGIN LEVEL: 0 DIFFERENT FILL-ORIGIN LEVEL: 0
STLB AVERAGE MISS LATENCY: 556.925 cycles
STLB RQ	ACCESS:   24602210	FORWARD:          0	MERGED:   19335083	TO_CACHE:    5267127

STLB Hit, L1D data hit: 0
STLB Hit, L2C data hit: 0
STLB Hit, LLC data hit: 0
STLB Hit, LLC data miss: 0
STLB STLB hints to L2: 0
L1D TOTAL     ACCESS:   79329016  HIT:   78093232  MISS:    1235784  HIT %:    98.4422  MISS %:     1.5578   MPKI: 6.17892
L1D LOAD      ACCESS:   37649712  HIT:   37390917  MISS:     258795  HIT %:    99.3126  MISS %:   0.687376   MPKI: 1.29397
L1D RFO       ACCESS:   21551260  HIT:   21132894  MISS:     418366  HIT %:    98.0587  MISS %:    1.94126   MPKI: 2.09183
L1D PREFETCH  ACCESS:   20128044  HIT:   19569421  MISS:     558623  HIT %:    97.2247  MISS %:    2.77535   MPKI: 2.79311
L1D PREFETCH  REQUESTED:   62350759  ISSUED:   52435570  USEFUL:     532810  USELESS:      25914
L1D USEFUL LOAD PREFETCHES:     532810 PREFETCH ISSUED TO LOWER LEVEL:    6877668  ACCURACY: 7.74696
L1D TIMELY PREFETCHES:     532810 LATE PREFETCHES: 33934 DROPPED PREFETCHES: 87446
L1D PREFETCHES SAME FILL-ORIGIN LEVEL: 643118 DIFFERENT FILL-ORIGIN LEVEL: 6234550
L1D AVERAGE MISS LATENCY: 689.716 cycles
L1D RQ	ACCESS:   47817433	FORWARD:          0	MERGED:    9879405	TO_CACHE:   37909184
L1D WQ	ACCESS:   25062248	FORWARD:      28844	MERGED:    1441605	TO_CACHE:   23620643
L1D PQ	ACCESS:   27863298	FORWARD:          0	MERGED:    3291026	TO_CACHE:   24572272

L1D UNIQUE REGIONS ACCESSED: 0
L1D REGIONS CONFLICTS: 0
L1D Cross Page Prefetch Requests: 1990171
L1D Same Page Prefetch Requests: 33696338
L1D ROI Sum of L1D PQ occupancy: 575587488
L1D PREFETCHES PUSHED FROM L2C: 0
L1I TOTAL     ACCESS:   43063108  HIT:   43063072  MISS:         36  HIT %:    99.9999  MISS %: 8.35982e-05   MPKI: 0.00018
L1I LOAD      ACCESS:   43063108  HIT:   43063072  MISS:         36  HIT %:    99.9999  MISS %: 8.35982e-05   MPKI: 0.00018
L1I PREFETCH  REQUESTED:          0  ISSUED:          0  USEFUL:          0  USELESS:          0
L1I USEFUL LOAD PREFETCHES:          0 PREFETCH ISSUED TO LOWER LEVEL:          0  ACCURACY: -nan
L1I TIMELY PREFETCHES:          0 LATE PREFETCHES: 0 DROPPED PREFETCHES: 0
L1I PREFETCHES SAME FILL-ORIGIN LEVEL: 0 DIFFERENT FILL-ORIGIN LEVEL: 0
L1I AVERAGE MISS LATENCY: 781.944 cycles
L1I RQ	ACCESS:   56754997	FORWARD:          0	MERGED:   13675855	TO_CACHE:   43079142

BTB TOTAL     ACCESS:   12980571  HIT:   11531317  MISS:    1449254  HIT %:    88.8352  MISS %:    11.1648   MPKI: 7.24627
BTB BRANCH_DIRECT_JUMP	ACCESS:    1449230  HIT:    1449222  MISS:          8
BTB BRANCH_INDIRECT	ACCESS:          0  HIT:          0  MISS:          0
BTB BRANCH_CONDITIONAL	ACCESS:    5734536  HIT:    5734506  MISS:         30
BTB BRANCH_DIRECT_CALL	ACCESS:    2898403  HIT:    2898393  MISS:         10
BTB BRANCH_INDIRECT_CALL	ACCESS:          0  HIT:          0  MISS:          0
BTB BRANCH_RETURN	ACCESS:    2898402  HIT:    1449196  MISS:    1449206
BTB BRANCH_OTHER ACCESS:          0  HIT:          0  MISS:          0

L2C TOTAL     ACCESS:    3428927  HIT:    2088711  MISS:    1340216  HIT %:    60.9144  MISS %:    39.0856   MPKI: 6.70108
L2C LOAD      ACCESS:     224895  HIT:     129332  MISS:      95563  HIT %:    57.5077  MISS %:    42.4923   MPKI: 0.477815
L2C DATA LOAD MPKI: 0.477635
L2C INSTRUCTION LOAD MPKI: 0.00018
L2C RFO       ACCESS:     418366  HIT:          0  MISS:     418366  HIT %:          0  MISS %:        100   MPKI: 2.09183
L2C PREFETCH  ACCESS:    2304584  HIT:    1555802  MISS:     748782  HIT %:     67.509  MISS %:     32.491   MPKI: 3.74391
L2C DATA PREFETCH MPKI: 3.74391
L2C INSTRUCTION PREFETCH MPKI: 0
L2C WRITEBACK ACCESS:     418241  HIT:     346993  MISS:      71248  HIT %:    82.9648  MISS %:    17.0352   MPKI: 0.35624
L2C LOAD TRANSLATION ACCESS:      19852  HIT:      15525  MISS:       4327  HIT %:    78.2037  MISS %:    21.7963   MPKI: 0.021635
L2C TRANSLATION FROM L1D PREFETCHER ACCESS:      42989  HIT:      41059  MISS:       1930  HIT %:    95.5105  MISS %:    4.48952   MPKI: 0.00965
L2C PREFETCH  REQUESTED:          0  ISSUED:          0  USEFUL:     131061  USELESS:     620378
L2C USEFUL LOAD PREFETCHES:     131061 PREFETCH ISSUED TO LOWER LEVEL:     806089  ACCURACY: 16.2589
L2C TIMELY PREFETCHES:     131061 LATE PREFETCHES: 57262 DROPPED PREFETCHES: 0
L2C PREFETCHES SAME FILL-ORIGIN LEVEL: 622058 DIFFERENT FILL-ORIGIN LEVEL: 0
L2C AVERAGE MISS LATENCY: 1230.31 cycles
L2C RQ	ACCESS:     706146	FORWARD:          0	MERGED:          0	TO_CACHE:     706144
L2C WQ	ACCESS:     418284	FORWARD:          2	MERGED:          0	TO_CACHE:     418284
L2C PQ	ACCESS:    3944008	FORWARD:          0	MERGED:      55994	TO_CACHE:    3888014

L2C Instructions Evicting Data 36
L2C Translations Evicting Data 6241
L2C Data Evicting Data 1256738
L2C Instructions Evicting Instructions 0
L2C Translations Evicting Instructions 0
L2C Data Evicting Instructions 35
L2C Instructions Evicting Translations 0
L2C Translations Evicting Translations 16
L2C Data Evicting Translations 5988
L2C Dense regions hint from L2: 0
PSCL5 TOTAL     ACCESS:      62717  HIT:      62717  MISS:          0  HIT %:        100  MISS %:          0   MPKI: 0
PSCL5 LOAD TRANSLATION ACCESS:      19776  HIT:      19776  MISS:          0  HIT %:        100  MISS %:          0   MPKI: 0
PSCL5 TRANSLATION FROM L1D PREFETCHER ACCESS:      42941  HIT:      42941  MISS:          0  HIT %:        100  MISS %:          0   MPKI: 0
PSCL5 PREFETCH  REQUESTED:          0  ISSUED:          0  USEFUL:          0  USELESS:          0
PSCL5 USEFUL LOAD PREFETCHES:          0 PREFETCH ISSUED TO LOWER LEVEL:          0  ACCURACY: -nan
PSCL5 TIMELY PREFETCHES:          0 LATE PREFETCHES: 0 DROPPED PREFETCHES: 0
PSCL5 PREFETCHES SAME FILL-ORIGIN LEVEL: 0 DIFFERENT FILL-ORIGIN LEVEL: 0

PSCL4 TOTAL     ACCESS:      62717  HIT:      62717  MISS:          0  HIT %:        100  MISS %:          0   MPKI: 0
PSCL4 LOAD TRANSLATION ACCESS:      19776  HIT:      19776  MISS:          0  HIT %:        100  MISS %:          0   MPKI: 0
PSCL4 TRANSLATION FROM L1D PREFETCHER ACCESS:      42941  HIT:      42941  MISS:          0  HIT %:        100  MISS %:          0   MPKI: 0
PSCL4 PREFETCH  REQUESTED:          0  ISSUED:          0  USEFUL:          0  USELESS:          0
PSCL4 USEFUL LOAD PREFETCHES:          0 PREFETCH ISSUED TO LOWER LEVEL:          0  ACCURACY: -nan
PSCL4 TIMELY PREFETCHES:          0 LATE PREFETCHES: 0 DROPPED PREFETCHES: 0
PSCL4 PREFETCHES SAME FILL-ORIGIN LEVEL: 0 DIFFERENT FILL-ORIGIN LEVEL: 0

PSCL3 TOTAL     ACCESS:      62714  HIT:      62708  MISS:          6  HIT %:    99.9904  MISS %: 0.00956724   MPKI: 3e-05
PSCL3 LOAD TRANSLATION ACCESS:      19776  HIT:      19770  MISS:          6  HIT %:    99.9697  MISS %:  0.0303398   MPKI: 3e-05
PSCL3 TRANSLATION FROM L1D PREFETCHER ACCESS:      42938  HIT:      42938  MISS:          0  HIT %:        100  MISS %:          0   MPKI: 0
PSCL3 PREFETCH  REQUESTED:          0  ISSUED:          0  USEFUL:          0  USELESS:          0
PSCL3 USEFUL LOAD PREFETCHES:          0 PREFETCH ISSUED TO LOWER LEVEL:          0  ACCURACY: -nan
PSCL3 TIMELY PREFETCHES:          0 LATE PREFETCHES: 0 DROPPED PREFETCHES: 0
PSCL3 PREFETCHES SAME FILL-ORIGIN LEVEL: 0 DIFFERENT FILL-ORIGIN LEVEL: 0

PSCL2 TOTAL     ACCESS:      62652  HIT:      62526  MISS:        126  HIT %:    99.7989  MISS %:   0.201111   MPKI: 0.00063
PSCL2 LOAD TRANSLATION ACCESS:      19790  HIT:      19664  MISS:        126  HIT %:    99.3633  MISS %:   0.636685   MPKI: 0.00063
PSCL2 TRANSLATION FROM L1D PREFETCHER ACCESS:      42862  HIT:      42862  MISS:          0  HIT %:        100  MISS %:          0   MPKI: 0
PSCL2 PREFETCH  REQUESTED:          0  ISSUED:          0  USEFUL:          0  USELESS:          0
PSCL2 USEFUL LOAD PREFETCHES:          0 PREFETCH ISSUED TO LOWER LEVEL:          0  ACCURACY: -nan
PSCL2 TIMELY PREFETCHES:          0 LATE PREFETCHES: 0 DROPPED PREFETCHES: 0
PSCL2 PREFETCHES SAME FILL-ORIGIN LEVEL: 0 DIFFERENT FILL-ORIGIN LEVEL: 0

LLC TOTAL     ACCESS:    1686436  HIT:     400111  MISS:    1286325  HIT %:    23.7252  MISS %:    76.2748   MPKI: 6.43162
LLC LOAD      ACCESS:      38301  HIT:         49  MISS:      38252  HIT %:   0.127934  MISS %:    99.8721   MPKI: 0.19126
LLC RFO       ACCESS:     418366  HIT:          0  MISS:     418366  HIT %:          0  MISS %:        100   MPKI: 2.09183
LLC PREFETCH  ACCESS:     806044  HIT:         58  MISS:     805986  HIT %: 0.00719564  MISS %:    99.9928   MPKI: 4.02993
LLC WRITEBACK ACCESS:     417468  HIT:     399883  MISS:      17585  HIT %:    95.7877  MISS %:     4.2123   MPKI: 0.087925
LLC LOAD TRANSLATION ACCESS:       4327  HIT:         49  MISS:       4278  HIT %:    1.13242  MISS %:    98.8676   MPKI: 0.02139
LLC TRANSLATION FROM L1D PREFETCHER ACCESS:       1930  HIT:         72  MISS:       1858  HIT %:    3.73057  MISS %:    96.2694   MPKI: 0.00929
LLC PREFETCH  REQUESTED:          0  ISSUED:          0  USEFUL:        198  USELESS:    3242944
LLC USEFUL LOAD PREFETCHES:        198 PREFETCH ISSUED TO LOWER LEVEL:  204456685  ACCURACY: 9.6842e-05
LLC TIMELY PREFETCHES:        198 LATE PREFETCHES: 0 DROPPED PREFETCHES: 0
LLC PREFETCHES SAME FILL-ORIGIN LEVEL: 0 DIFFERENT FILL-ORIGIN LEVEL: 0
LLC AVERAGE MISS LATENCY: 4324.45 cycles
LLC RQ	ACCESS:    1849981	FORWARD:          0	MERGED:          0	TO_CACHE:    1849981
LLC WQ	ACCESS:    1671312	FORWARD:          0	MERGED:          0	TO_CACHE:    1671312
LLC PQ	ACCESS:    3227507	FORWARD:          0	MERGED:          0	TO_CACHE:    3227507

LLC Dense regions hint to LLC: 0

RAW hits: 6763176
Loads Generated: 54564025
Loads sent to L1D: 47800858
Stores Generated: 25053089
Stores sent to L1D: 25053089
Major fault: 0 Minor fault: 17838
Allocated PAGES: 71352

DRAM Statistics
 CHANNEL 0
 RQ ROW_BUFFER_HIT:    1767213  ROW_BUFFER_MISS:    3309091
 DBUS_CONGESTED:       6078
 WQ ROW_BUFFER_HIT:     177878  ROW_BUFFER_MISS:    1484079  FULL:          0

 AVG_CONGESTED_CYCLE: 4
 All warmup complete: 5
Channel 0 Bank busy for read cycles: 0
Channel 0 Bank busy for write cycles: 0
Channel 0
Rank 0
0banks busy for read cycles: 147293715
0banks busy for write cycles: 176020
1banks busy for read cycles: 75025654
1banks busy for write cycles: 26151919
2banks busy for read cycles: 15443288
2banks busy for write cycles: 6120200
3banks busy for read cycles: 2189177
3banks busy for write cycles: 2071024
4banks busy for read cycles: 595572
4banks busy for write cycles: 1063602
5banks busy for read cycles: 654208
5banks busy for write cycles: 790280
6banks busy for read cycles: 1257062
6banks busy for write cycles: 814343
7banks busy for read cycles: 6686024
7banks busy for write cycles: 4307994
8banks busy for read cycles: 58666272
8banks busy for write cycles: 31756538

CPU 0 Branch Prediction Accuracy: 99.9742% MPKI: 0.0279572 Average ROB Occupancy at Mispredict: 168.034
Branch types
NOT_BRANCH: 178431552 89.16%
BRANCH_DIRECT_JUMP: 1450280 0.724687%
BRANCH_INDIRECT: 0 0%
BRANCH_CONDITIONAL: 14442028 7.2165%
BRANCH_DIRECT_CALL: 2900503 1.44934%
BRANCH_INDIRECT_CALL: 0 0%
BRANCH_RETURN: 2900500 1.44934%
BRANCH_OTHER: 0 0%


CPU 1 Branch Prediction Accuracy: 99.9742% MPKI: 0.027965 Average ROB Occupancy at Mispredict: 167.273
Branch types
NOT_BRANCH: 178321212 89.1606%
BRANCH_DIRECT_JUMP: 1449216 0.724608%
BRANCH_INDIRECT: 0 0%
BRANCH_CONDITIONAL: 14432545 7.21627%
BRANCH_DIRECT_CALL: 2898375 1.44919%
BRANCH_INDIRECT_CALL: 0 0%
BRANCH_RETURN: 2898374 1.44919%
BRANCH_OTHER: 0 0%


CPU 2 Branch Prediction Accuracy: 99.9742% MPKI: 0.0279566 Average ROB Occupancy at Mispredict: 167.261
Branch types
NOT_BRANCH: 178373091 89.1602%
BRANCH_DIRECT_JUMP: 1449745 0.724659%
BRANCH_INDIRECT: 0 0%
BRANCH_CONDITIONAL: 14437017 7.21638%
BRANCH_DIRECT_CALL: 2899433 1.44929%
BRANCH_INDIRECT_CALL: 0 0%
BRANCH_RETURN: 2899432 1.44929%
BRANCH_OTHER: 0 0%


CPU 3 Branch Prediction Accuracy: 99.9742% MPKI: 0.0279544 Average ROB Occupancy at Mispredict: 168.684
Branch types
NOT_BRANCH: 178386122 89.1601%
BRANCH_DIRECT_JUMP: 1449884 0.724674%
BRANCH_INDIRECT: 0 0%
BRANCH_CONDITIONAL: 14438174 7.21642%
BRANCH_DIRECT_CALL: 2899711 1.44932%
BRANCH_INDIRECT_CALL: 0 0%
BRANCH_RETURN: 2899710 1.44932%
BRANCH_OTHER: 0 0%

DRAM PAGES: 1048576
Allocated PAGES: 71352
