
*** ChampSim Multicore Out-of-Order Simulator ***

Warmup Instructions: 50000000
Simulation Instructions: 200000000
Number of CPUs: 4
LLC sets: 8192
LLC ways: 16
Off-chip DRAM Size: 4096 MB Channels: 1 Width: 64-bit Data Rate: 6400 MT/s
CPU 0 runs ./traces/spec/605.mcf_s-665B.champsimtrace.xz
.xz
CPU 1 runs ./traces/ligra/ligra_Components-Shortcut.com-lj.ungraph.gcc_6.3.0_O3.drop_22000M.length_250M.champsimtrace.xz
.xz
CPU 2 runs ./traces/ligra/ligra_Triangle.com-lj.ungraph.gcc_6.3.0_O3.drop_3500M.length_250M.champsimtrace.xz
.xz
CPU 3 runs ./traces/ligra/ligra_BellmanFord.com-lj.ungraph.gcc_6.3.0_O3.drop_7500M.length_250M.champsimtrace.xz
.xz
BTB has LRU replacement policy
ITLB has LRU replacement policy
DTLB has LRU replacement policy
STLB has LRU replacement policy
L1I has LRU replacement policy
History Sets: 8
History Ways: 16
BERTI Size: 16
BERTI Stride Size: 8
L1D has LRU replacement policy
Initialize SRRIP state for L2C
Initialize DRRIP state for LLC
BTB has LRU replacement policy
ITLB has LRU replacement policy
DTLB has LRU replacement policy
STLB has LRU replacement policy
L1I has LRU replacement policy
History Sets: 8
History Ways: 16
BERTI Size: 16
BERTI Stride Size: 8
L1D has LRU replacement policy
Initialize SRRIP state for L2C
Initialize DRRIP state for LLC
BTB has LRU replacement policy
ITLB has LRU replacement policy
DTLB has LRU replacement policy
STLB has LRU replacement policy
L1I has LRU replacement policy
History Sets: 8
History Ways: 16
BERTI Size: 16
BERTI Stride Size: 8
L1D has LRU replacement policy
Initialize SRRIP state for L2C
Initialize DRRIP state for LLC
BTB has LRU replacement policy
ITLB has LRU replacement policy
DTLB has LRU replacement policy
STLB has LRU replacement policy
L1I has LRU replacement policy
History Sets: 8
History Ways: 16
BERTI Size: 16
BERTI Stride Size: 8
L1D has LRU replacement policy
Initialize SRRIP state for L2C
Initialize DRRIP state for LLC
Heartbeat CPU 0 instructions: 10000000 cycles: 3309266 heartbeat IPC: 3.02182 cumulative IPC: 3.02182 (Simulation time: 0 hr 6 min 31 sec) 
Heartbeat CPU 2 instructions: 10000000 cycles: 3333346 heartbeat IPC: 2.99999 cumulative IPC: 2.99999 (Simulation time: 0 hr 6 min 34 sec) 
Heartbeat CPU 1 instructions: 10000002 cycles: 3438067 heartbeat IPC: 2.90861 cumulative IPC: 2.90861 (Simulation time: 0 hr 6 min 49 sec) 
Heartbeat CPU 3 instructions: 10000002 cycles: 3835976 heartbeat IPC: 2.6069 cumulative IPC: 2.6069 (Simulation time: 0 hr 7 min 37 sec) 
Heartbeat CPU 0 instructions: 20000000 cycles: 6618203 heartbeat IPC: 3.02212 cumulative IPC: 3.02197 (Simulation time: 0 hr 12 min 41 sec) 
Heartbeat CPU 2 instructions: 20000001 cycles: 6666680 heartbeat IPC: 3 cumulative IPC: 2.99999 (Simulation time: 0 hr 12 min 45 sec) 
Heartbeat CPU 1 instructions: 20000002 cycles: 6855437 heartbeat IPC: 2.92623 cumulative IPC: 2.91739 (Simulation time: 0 hr 13 min 1 sec) 
Heartbeat CPU 3 instructions: 20000001 cycles: 7672008 heartbeat IPC: 2.60686 cumulative IPC: 2.60688 (Simulation time: 0 hr 14 min 20 sec) 
Heartbeat CPU 0 instructions: 30000002 cycles: 9921411 heartbeat IPC: 3.02736 cumulative IPC: 3.02376 (Simulation time: 0 hr 17 min 26 sec) 
Heartbeat CPU 2 instructions: 30000002 cycles: 10000013 heartbeat IPC: 3 cumulative IPC: 3 (Simulation time: 0 hr 17 min 32 sec) 
Heartbeat CPU 1 instructions: 30000001 cycles: 10263140 heartbeat IPC: 2.93453 cumulative IPC: 2.92308 (Simulation time: 0 hr 17 min 53 sec) 
Heartbeat CPU 3 instructions: 30000002 cycles: 11507955 heartbeat IPC: 2.60692 cumulative IPC: 2.60689 (Simulation time: 0 hr 19 min 32 sec) 
Heartbeat CPU 0 instructions: 40000003 cycles: 13225735 heartbeat IPC: 3.02634 cumulative IPC: 3.02441 (Simulation time: 0 hr 21 min 43 sec) 
Heartbeat CPU 2 instructions: 40000003 cycles: 13333347 heartbeat IPC: 3 cumulative IPC: 3 (Simulation time: 0 hr 21 min 52 sec) 
Heartbeat CPU 1 instructions: 40000003 cycles: 13662717 heartbeat IPC: 2.94154 cumulative IPC: 2.92768 (Simulation time: 0 hr 22 min 17 sec) 
Heartbeat CPU 3 instructions: 40000002 cycles: 15343940 heartbeat IPC: 2.60689 cumulative IPC: 2.60689 (Simulation time: 0 hr 24 min 25 sec) 
Heartbeat CPU 0 instructions: 50000002 cycles: 16526322 heartbeat IPC: 3.02976 cumulative IPC: 3.02548 (Simulation time: 0 hr 25 min 56 sec) 
Heartbeat CPU 2 instructions: 50000002 cycles: 16666680 heartbeat IPC: 3 cumulative IPC: 3 (Simulation time: 0 hr 26 min 5 sec) 
Heartbeat CPU 1 instructions: 50000000 cycles: 17075738 heartbeat IPC: 2.92995 cumulative IPC: 2.92813 (Simulation time: 0 hr 26 min 29 sec) 
Heartbeat CPU 3 instructions: 50000000 cycles: 19179957 heartbeat IPC: 2.60687 cumulative IPC: 2.60689 (Simulation time: 0 hr 28 min 20 sec) 

Warmup complete CPU 0 instructions: 54772346 cycles: 19179958 (Simulation time: 0 hr 28 min 20 sec) 
Warmup complete CPU 1 instructions: 54715670 cycles: 19179958 (Simulation time: 0 hr 28 min 20 sec) 
Warmup complete CPU 2 instructions: 57393022 cycles: 19179958 (Simulation time: 0 hr 28 min 20 sec) 
Warmup complete CPU 3 instructions: 50000003 cycles: 19179958 (Simulation time: 0 hr 28 min 20 sec) 

Heartbeat CPU 2 instructions: 60000001 cycles: 21467174 heartbeat IPC: 2.08312 cumulative IPC: 1.1398 (Simulation time: 0 hr 29 min 10 sec) 
Heartbeat CPU 3 instructions: 60000001 cycles: 27652881 heartbeat IPC: 1.18023 cumulative IPC: 1.18023 (Simulation time: 0 hr 31 min 15 sec) 
Heartbeat CPU 1 instructions: 60000000 cycles: 29121622 heartbeat IPC: 0.830159 cumulative IPC: 0.531534 (Simulation time: 0 hr 31 min 45 sec) 
Heartbeat CPU 2 instructions: 70000002 cycles: 30218509 heartbeat IPC: 1.14268 cumulative IPC: 1.14209 (Simulation time: 0 hr 32 min 9 sec) 
Heartbeat CPU 0 instructions: 60000003 cycles: 35644496 heartbeat IPC: 0.523063 cumulative IPC: 0.31751 (Simulation time: 0 hr 34 min 1 sec) 
Heartbeat CPU 3 instructions: 70000002 cycles: 36123934 heartbeat IPC: 1.18049 cumulative IPC: 1.18036 (Simulation time: 0 hr 34 min 11 sec) 
Heartbeat CPU 2 instructions: 80000003 cycles: 38929194 heartbeat IPC: 1.14802 cumulative IPC: 1.1447 (Simulation time: 0 hr 35 min 7 sec) 
Heartbeat CPU 3 instructions: 80000002 cycles: 44602720 heartbeat IPC: 1.17941 cumulative IPC: 1.18004 (Simulation time: 0 hr 37 min 3 sec) 
Heartbeat CPU 2 instructions: 90000001 cycles: 47678643 heartbeat IPC: 1.14293 cumulative IPC: 1.14416 (Simulation time: 0 hr 38 min 5 sec) 
Heartbeat CPU 1 instructions: 70000003 cycles: 48372461 heartbeat IPC: 0.519458 cumulative IPC: 0.52357 (Simulation time: 0 hr 38 min 19 sec) 
Heartbeat CPU 3 instructions: 90000000 cycles: 53079188 heartbeat IPC: 1.17974 cumulative IPC: 1.17997 (Simulation time: 0 hr 39 min 54 sec) 
Heartbeat CPU 2 instructions: 100000001 cycles: 56414119 heartbeat IPC: 1.14476 cumulative IPC: 1.1443 (Simulation time: 0 hr 41 min 3 sec) 
Heartbeat CPU 3 instructions: 100000002 cycles: 61558354 heartbeat IPC: 1.17936 cumulative IPC: 1.17985 (Simulation time: 0 hr 42 min 45 sec) 
Heartbeat CPU 2 instructions: 110000000 cycles: 65163478 heartbeat IPC: 1.14294 cumulative IPC: 1.14404 (Simulation time: 0 hr 43 min 53 sec) 
Heartbeat CPU 0 instructions: 70000003 cycles: 68077462 heartbeat IPC: 0.308328 cumulative IPC: 0.31142 (Simulation time: 0 hr 44 min 52 sec) 
Heartbeat CPU 1 instructions: 80000000 cycles: 68306836 heartbeat IPC: 0.501646 cumulative IPC: 0.514674 (Simulation time: 0 hr 44 min 57 sec) 
Heartbeat CPU 3 instructions: 110000000 cycles: 70038781 heartbeat IPC: 1.17919 cumulative IPC: 1.17974 (Simulation time: 0 hr 45 min 30 sec) 
Heartbeat CPU 2 instructions: 120000001 cycles: 73936883 heartbeat IPC: 1.13981 cumulative IPC: 1.14336 (Simulation time: 0 hr 46 min 46 sec) 
Heartbeat CPU 3 instructions: 120000002 cycles: 78520059 heartbeat IPC: 1.17907 cumulative IPC: 1.17964 (Simulation time: 0 hr 48 min 15 sec) 
Heartbeat CPU 2 instructions: 130000002 cycles: 82723942 heartbeat IPC: 1.13804 cumulative IPC: 1.14263 (Simulation time: 0 hr 49 min 30 sec) 
Heartbeat CPU 3 instructions: 130000000 cycles: 87003275 heartbeat IPC: 1.1788 cumulative IPC: 1.17954 (Simulation time: 0 hr 50 min 52 sec) 
Heartbeat CPU 2 instructions: 140000003 cycles: 91501920 heartbeat IPC: 1.13921 cumulative IPC: 1.14221 (Simulation time: 0 hr 52 min 21 sec) 
Heartbeat CPU 1 instructions: 90000002 cycles: 93258371 heartbeat IPC: 0.400777 cumulative IPC: 0.476311 (Simulation time: 0 hr 52 min 55 sec) 
Heartbeat CPU 3 instructions: 140000000 cycles: 95480192 heartbeat IPC: 1.17967 cumulative IPC: 1.17955 (Simulation time: 0 hr 53 min 38 sec) 
Heartbeat CPU 2 instructions: 150000001 cycles: 100272530 heartbeat IPC: 1.14017 cumulative IPC: 1.14199 (Simulation time: 0 hr 55 min 10 sec) 
Heartbeat CPU 0 instructions: 80000001 cycles: 100884571 heartbeat IPC: 0.304812 cumulative IPC: 0.308767 (Simulation time: 0 hr 55 min 22 sec) 
Heartbeat CPU 3 instructions: 150000001 cycles: 103965749 heartbeat IPC: 1.17847 cumulative IPC: 1.17944 (Simulation time: 0 hr 56 min 23 sec) 
Heartbeat CPU 2 instructions: 160000001 cycles: 109047333 heartbeat IPC: 1.13963 cumulative IPC: 1.14176 (Simulation time: 0 hr 58 min 3 sec) 
Heartbeat CPU 3 instructions: 160000002 cycles: 112447893 heartbeat IPC: 1.17895 cumulative IPC: 1.1794 (Simulation time: 0 hr 59 min 9 sec) 
Heartbeat CPU 2 instructions: 170000001 cycles: 117734368 heartbeat IPC: 1.15114 cumulative IPC: 1.14259 (Simulation time: 1 hr 0 min 51 sec) 
Heartbeat CPU 1 instructions: 100000000 cycles: 119490009 heartbeat IPC: 0.381219 cumulative IPC: 0.451444 (Simulation time: 1 hr 1 min 25 sec) 
Heartbeat CPU 3 instructions: 170000000 cycles: 120929211 heartbeat IPC: 1.17906 cumulative IPC: 1.17937 (Simulation time: 1 hr 1 min 54 sec) 
Heartbeat CPU 2 instructions: 180000002 cycles: 126505434 heartbeat IPC: 1.14011 cumulative IPC: 1.14238 (Simulation time: 1 hr 3 min 40 sec) 
Heartbeat CPU 3 instructions: 180000000 cycles: 129413435 heartbeat IPC: 1.17866 cumulative IPC: 1.17932 (Simulation time: 1 hr 4 min 33 sec) 
Heartbeat CPU 0 instructions: 90000002 cycles: 135019576 heartbeat IPC: 0.292954 cumulative IPC: 0.304107 (Simulation time: 1 hr 6 min 17 sec) 
Heartbeat CPU 2 instructions: 190000002 cycles: 135330003 heartbeat IPC: 1.1332 cumulative IPC: 1.14169 (Simulation time: 1 hr 6 min 23 sec) 
Heartbeat CPU 3 instructions: 190000000 cycles: 139036318 heartbeat IPC: 1.03919 cumulative IPC: 1.16806 (Simulation time: 1 hr 7 min 26 sec) 
Heartbeat CPU 2 instructions: 200000000 cycles: 144178418 heartbeat IPC: 1.13015 cumulative IPC: 1.14087 (Simulation time: 1 hr 8 min 54 sec) 
Heartbeat CPU 1 instructions: 110000000 cycles: 144609630 heartbeat IPC: 0.398095 cumulative IPC: 0.44076 (Simulation time: 1 hr 9 min 1 sec) 
Heartbeat CPU 2 instructions: 210000002 cycles: 153008663 heartbeat IPC: 1.13247 cumulative IPC: 1.14032 (Simulation time: 1 hr 11 min 14 sec) 
Heartbeat CPU 3 instructions: 200000000 cycles: 155143820 heartbeat IPC: 0.620829 cumulative IPC: 1.10323 (Simulation time: 1 hr 11 min 48 sec) 
Heartbeat CPU 2 instructions: 220000000 cycles: 161921740 heartbeat IPC: 1.12195 cumulative IPC: 1.13917 (Simulation time: 1 hr 13 min 33 sec) 
Heartbeat CPU 0 instructions: 100000000 cycles: 168481861 heartbeat IPC: 0.298844 cumulative IPC: 0.302928 (Simulation time: 1 hr 15 min 14 sec) 
Heartbeat CPU 2 instructions: 230000000 cycles: 170727332 heartbeat IPC: 1.13564 cumulative IPC: 1.13896 (Simulation time: 1 hr 15 min 48 sec) 
Heartbeat CPU 3 instructions: 210000000 cycles: 171272301 heartbeat IPC: 0.620021 cumulative IPC: 1.05199 (Simulation time: 1 hr 15 min 58 sec) 
Heartbeat CPU 1 instructions: 120000000 cycles: 174542851 heartbeat IPC: 0.334077 cumulative IPC: 0.420205 (Simulation time: 1 hr 16 min 48 sec) 
Heartbeat CPU 2 instructions: 240000003 cycles: 179524005 heartbeat IPC: 1.13679 cumulative IPC: 1.13884 (Simulation time: 1 hr 18 min 2 sec) 
Heartbeat CPU 3 instructions: 220000000 cycles: 187390345 heartbeat IPC: 0.620423 cumulative IPC: 1.01064 (Simulation time: 1 hr 20 min 6 sec) 
*** Reached end of trace for Core: 2 Repeating trace: ./traces/ligra/ligra_Triangle.com-lj.ungraph.gcc_6.3.0_O3.drop_3500M.length_250M.champsimtrace.xz
Heartbeat CPU 2 instructions: 250000001 cycles: 188277230 heartbeat IPC: 1.14244 cumulative IPC: 1.13903 (Simulation time: 1 hr 20 min 19 sec) 
Finished CPU 2 instructions: 200000000 cycles: 175489751 cumulative IPC: 1.13967 (Simulation time: 1 hr 21 min 56 sec) 
Heartbeat CPU 2 instructions: 260000000 cycles: 196927533 heartbeat IPC: 1.15603 cumulative IPC: 1.13986 (Simulation time: 1 hr 22 min 28 sec) 
Heartbeat CPU 0 instructions: 110000000 cycles: 202606387 heartbeat IPC: 0.293044 cumulative IPC: 0.301089 (Simulation time: 1 hr 23 min 54 sec) 
Heartbeat CPU 3 instructions: 230000001 cycles: 203510284 heartbeat IPC: 0.62035 cumulative IPC: 0.976508 (Simulation time: 1 hr 24 min 9 sec) 
Heartbeat CPU 2 instructions: 270000003 cycles: 205602100 heartbeat IPC: 1.1528 cumulative IPC: 1.14046 (Simulation time: 1 hr 24 min 41 sec) 
Heartbeat CPU 1 instructions: 130000002 cycles: 211951621 heartbeat IPC: 0.267317 cumulative IPC: 0.390536 (Simulation time: 1 hr 26 min 17 sec) 
Heartbeat CPU 2 instructions: 280000001 cycles: 214244045 heartbeat IPC: 1.15715 cumulative IPC: 1.1412 (Simulation time: 1 hr 26 min 53 sec) 
Heartbeat CPU 3 instructions: 240000000 cycles: 219644288 heartbeat IPC: 0.619809 cumulative IPC: 0.9478 (Simulation time: 1 hr 28 min 15 sec) 
Heartbeat CPU 2 instructions: 290000000 cycles: 222896403 heartbeat IPC: 1.15575 cumulative IPC: 1.14182 (Simulation time: 1 hr 29 min 3 sec) 
Heartbeat CPU 2 instructions: 300000000 cycles: 231539589 heartbeat IPC: 1.15698 cumulative IPC: 1.14243 (Simulation time: 1 hr 31 min 14 sec) 
*** Reached end of trace for Core: 3 Repeating trace: ./traces/ligra/ligra_BellmanFord.com-lj.ungraph.gcc_6.3.0_O3.drop_7500M.length_250M.champsimtrace.xz
Heartbeat CPU 3 instructions: 250000001 cycles: 235785837 heartbeat IPC: 0.619519 cumulative IPC: 0.923336 (Simulation time: 1 hr 32 min 19 sec) 
Finished CPU 3 instructions: 200000000 cycles: 216606838 cumulative IPC: 0.923332 (Simulation time: 1 hr 32 min 19 sec) 
Heartbeat CPU 0 instructions: 120000000 cycles: 236796126 heartbeat IPC: 0.292485 cumulative IPC: 0.299737 (Simulation time: 1 hr 32 min 38 sec) 
Heartbeat CPU 2 instructions: 310000002 cycles: 240180153 heartbeat IPC: 1.15733 cumulative IPC: 1.14302 (Simulation time: 1 hr 33 min 39 sec) 
Heartbeat CPU 3 instructions: 260000003 cycles: 244161736 heartbeat IPC: 1.1939 cumulative IPC: 0.933409 (Simulation time: 1 hr 34 min 48 sec) 
Heartbeat CPU 2 instructions: 320000002 cycles: 248848108 heartbeat IPC: 1.15367 cumulative IPC: 1.14342 (Simulation time: 1 hr 36 min 14 sec) 
Heartbeat CPU 1 instructions: 140000001 cycles: 250172820 heartbeat IPC: 0.261635 cumulative IPC: 0.369208 (Simulation time: 1 hr 36 min 38 sec) 
Heartbeat CPU 3 instructions: 270000002 cycles: 252530758 heartbeat IPC: 1.19488 cumulative IPC: 0.942787 (Simulation time: 1 hr 37 min 20 sec) 
Heartbeat CPU 2 instructions: 330000000 cycles: 257479357 heartbeat IPC: 1.15858 cumulative IPC: 1.14397 (Simulation time: 1 hr 38 min 51 sec) 
Heartbeat CPU 3 instructions: 280000000 cycles: 260899786 heartbeat IPC: 1.19488 cumulative IPC: 0.951515 (Simulation time: 1 hr 39 min 53 sec) 
Heartbeat CPU 2 instructions: 340000000 cycles: 266149971 heartbeat IPC: 1.15332 cumulative IPC: 1.1443 (Simulation time: 1 hr 41 min 27 sec) 
Heartbeat CPU 3 instructions: 290000000 cycles: 269268901 heartbeat IPC: 1.19487 cumulative IPC: 0.959659 (Simulation time: 1 hr 42 min 26 sec) 
Heartbeat CPU 0 instructions: 130000000 cycles: 270741424 heartbeat IPC: 0.294592 cumulative IPC: 0.299043 (Simulation time: 1 hr 42 min 54 sec) 
Heartbeat CPU 2 instructions: 350000001 cycles: 274802282 heartbeat IPC: 1.15576 cumulative IPC: 1.14468 (Simulation time: 1 hr 44 min 12 sec) 
Heartbeat CPU 3 instructions: 300000001 cycles: 277640407 heartbeat IPC: 1.19453 cumulative IPC: 0.967266 (Simulation time: 1 hr 45 min 4 sec) 
Heartbeat CPU 2 instructions: 360000001 cycles: 283468673 heartbeat IPC: 1.15388 cumulative IPC: 1.14499 (Simulation time: 1 hr 46 min 56 sec) 
Heartbeat CPU 3 instructions: 310000002 cycles: 286010014 heartbeat IPC: 1.1948 cumulative IPC: 0.974403 (Simulation time: 1 hr 47 min 46 sec) 
Heartbeat CPU 1 instructions: 150000000 cycles: 288482284 heartbeat IPC: 0.261032 cumulative IPC: 0.353819 (Simulation time: 1 hr 48 min 32 sec) 
Heartbeat CPU 2 instructions: 370000003 cycles: 292155506 heartbeat IPC: 1.15117 cumulative IPC: 1.14518 (Simulation time: 1 hr 49 min 42 sec) 
Heartbeat CPU 3 instructions: 320000000 cycles: 294380411 heartbeat IPC: 1.19469 cumulative IPC: 0.981103 (Simulation time: 1 hr 50 min 24 sec) 
Heartbeat CPU 2 instructions: 380000002 cycles: 300856148 heartbeat IPC: 1.14934 cumulative IPC: 1.14531 (Simulation time: 1 hr 52 min 19 sec) 
Heartbeat CPU 3 instructions: 330000000 cycles: 302752904 heartbeat IPC: 1.19439 cumulative IPC: 0.9874 (Simulation time: 1 hr 52 min 54 sec) 
Heartbeat CPU 0 instructions: 140000002 cycles: 305312551 heartbeat IPC: 0.289259 cumulative IPC: 0.297861 (Simulation time: 1 hr 53 min 40 sec) 
Heartbeat CPU 2 instructions: 390000003 cycles: 309551791 heartbeat IPC: 1.15 cumulative IPC: 1.14545 (Simulation time: 1 hr 54 min 59 sec) 
Heartbeat CPU 3 instructions: 340000001 cycles: 311123507 heartbeat IPC: 1.19466 cumulative IPC: 0.993343 (Simulation time: 1 hr 55 min 27 sec) 
Heartbeat CPU 2 instructions: 400000000 cycles: 318238419 heartbeat IPC: 1.15119 cumulative IPC: 1.14562 (Simulation time: 1 hr 57 min 36 sec) 
Heartbeat CPU 3 instructions: 350000003 cycles: 319493177 heartbeat IPC: 1.19479 cumulative IPC: 0.998957 (Simulation time: 1 hr 57 min 59 sec) 
Heartbeat CPU 2 instructions: 410000002 cycles: 326930774 heartbeat IPC: 1.15044 cumulative IPC: 1.14575 (Simulation time: 2 hr 0 min 19 sec) 
Heartbeat CPU 1 instructions: 160000000 cycles: 327100605 heartbeat IPC: 0.258944 cumulative IPC: 0.34192 (Simulation time: 2 hr 0 min 22 sec) 
Heartbeat CPU 3 instructions: 360000000 cycles: 327863519 heartbeat IPC: 1.19469 cumulative IPC: 1.00426 (Simulation time: 2 hr 0 min 37 sec) 
Heartbeat CPU 2 instructions: 420000001 cycles: 335534270 heartbeat IPC: 1.16232 cumulative IPC: 1.14621 (Simulation time: 2 hr 3 min 3 sec) 
Heartbeat CPU 3 instructions: 370000000 cycles: 336234607 heartbeat IPC: 1.19459 cumulative IPC: 1.00929 (Simulation time: 2 hr 3 min 14 sec) 
Heartbeat CPU 0 instructions: 150000000 cycles: 339749076 heartbeat IPC: 0.290389 cumulative IPC: 0.297058 (Simulation time: 2 hr 4 min 16 sec) 
Heartbeat CPU 2 instructions: 430000002 cycles: 344218198 heartbeat IPC: 1.15155 cumulative IPC: 1.14635 (Simulation time: 2 hr 5 min 33 sec) 
Heartbeat CPU 3 instructions: 380000001 cycles: 344611112 heartbeat IPC: 1.19382 cumulative IPC: 1.01404 (Simulation time: 2 hr 5 min 41 sec) 
Heartbeat CPU 2 instructions: 440000000 cycles: 352954220 heartbeat IPC: 1.14469 cumulative IPC: 1.1463 (Simulation time: 2 hr 8 min 14 sec) 
Heartbeat CPU 3 instructions: 390000001 cycles: 352981777 heartbeat IPC: 1.19465 cumulative IPC: 1.01857 (Simulation time: 2 hr 8 min 14 sec) 
Heartbeat CPU 3 instructions: 400000000 cycles: 361354237 heartbeat IPC: 1.19439 cumulative IPC: 1.02287 (Simulation time: 2 hr 10 min 40 sec) 
Heartbeat CPU 2 instructions: 450000002 cycles: 361714721 heartbeat IPC: 1.14149 cumulative IPC: 1.14618 (Simulation time: 2 hr 10 min 47 sec) 
Heartbeat CPU 1 instructions: 170000000 cycles: 366761599 heartbeat IPC: 0.252137 cumulative IPC: 0.331676 (Simulation time: 2 hr 12 min 14 sec) 
Heartbeat CPU 3 instructions: 410000000 cycles: 369725861 heartbeat IPC: 1.19451 cumulative IPC: 1.02697 (Simulation time: 2 hr 13 min 7 sec) 
Heartbeat CPU 2 instructions: 460000002 cycles: 370451044 heartbeat IPC: 1.14465 cumulative IPC: 1.14614 (Simulation time: 2 hr 13 min 20 sec) 
Heartbeat CPU 0 instructions: 160000000 cycles: 373651126 heartbeat IPC: 0.294967 cumulative IPC: 0.296858 (Simulation time: 2 hr 14 min 20 sec) 
Heartbeat CPU 3 instructions: 420000001 cycles: 378094440 heartbeat IPC: 1.19495 cumulative IPC: 1.03089 (Simulation time: 2 hr 15 min 41 sec) 
Heartbeat CPU 2 instructions: 470000002 cycles: 379270143 heartbeat IPC: 1.1339 cumulative IPC: 1.14584 (Simulation time: 2 hr 16 min 2 sec) 
Heartbeat CPU 3 instructions: 430000001 cycles: 386463373 heartbeat IPC: 1.1949 cumulative IPC: 1.03462 (Simulation time: 2 hr 18 min 16 sec) 
Heartbeat CPU 2 instructions: 480000000 cycles: 387988401 heartbeat IPC: 1.14702 cumulative IPC: 1.14587 (Simulation time: 2 hr 18 min 46 sec) 
Heartbeat CPU 3 instructions: 440000000 cycles: 395921618 heartbeat IPC: 1.05728 cumulative IPC: 1.03519 (Simulation time: 2 hr 21 min 2 sec) 
Heartbeat CPU 2 instructions: 490000002 cycles: 396688499 heartbeat IPC: 1.14941 cumulative IPC: 1.14595 (Simulation time: 2 hr 21 min 11 sec) 
*** Reached end of trace for Core: 2 Repeating trace: ./traces/ligra/ligra_Triangle.com-lj.ungraph.gcc_6.3.0_O3.drop_3500M.length_250M.champsimtrace.xz
Heartbeat CPU 2 instructions: 500000001 cycles: 405350167 heartbeat IPC: 1.15451 cumulative IPC: 1.14614 (Simulation time: 2 hr 23 min 23 sec) 
Heartbeat CPU 1 instructions: 180000003 cycles: 408363264 heartbeat IPC: 0.240375 cumulative IPC: 0.321916 (Simulation time: 2 hr 24 min 9 sec) 
Heartbeat CPU 0 instructions: 170000003 cycles: 408716336 heartbeat IPC: 0.285183 cumulative IPC: 0.295807 (Simulation time: 2 hr 24 min 15 sec) 
Heartbeat CPU 3 instructions: 450000001 cycles: 411740434 heartbeat IPC: 0.632159 cumulative IPC: 1.01895 (Simulation time: 2 hr 25 min 1 sec) 
Heartbeat CPU 2 instructions: 510000000 cycles: 414000852 heartbeat IPC: 1.15598 cumulative IPC: 1.14636 (Simulation time: 2 hr 25 min 35 sec) 
Heartbeat CPU 2 instructions: 520000003 cycles: 422674801 heartbeat IPC: 1.15288 cumulative IPC: 1.1465 (Simulation time: 2 hr 27 min 46 sec) 
Heartbeat CPU 3 instructions: 460000001 cycles: 427583817 heartbeat IPC: 0.631178 cumulative IPC: 1.00391 (Simulation time: 2 hr 28 min 59 sec) 
Heartbeat CPU 2 instructions: 530000000 cycles: 431316380 heartbeat IPC: 1.1572 cumulative IPC: 1.14672 (Simulation time: 2 hr 29 min 54 sec) 
Heartbeat CPU 2 instructions: 540000000 cycles: 439967975 heartbeat IPC: 1.15586 cumulative IPC: 1.14691 (Simulation time: 2 hr 32 min 3 sec) 
Heartbeat CPU 3 instructions: 470000000 cycles: 443418609 heartbeat IPC: 0.631521 cumulative IPC: 0.990009 (Simulation time: 2 hr 32 min 56 sec) 
Heartbeat CPU 0 instructions: 180000001 cycles: 443636228 heartbeat IPC: 0.28637 cumulative IPC: 0.295031 (Simulation time: 2 hr 33 min 0 sec) 
Heartbeat CPU 2 instructions: 550000000 cycles: 448610674 heartbeat IPC: 1.15705 cumulative IPC: 1.14712 (Simulation time: 2 hr 34 min 12 sec) 
Heartbeat CPU 1 instructions: 190000003 cycles: 452812292 heartbeat IPC: 0.224977 cumulative IPC: 0.311979 (Simulation time: 2 hr 35 min 10 sec) 
Heartbeat CPU 2 instructions: 560000001 cycles: 457251292 heartbeat IPC: 1.15732 cumulative IPC: 1.14732 (Simulation time: 2 hr 36 min 14 sec) 
Heartbeat CPU 3 instructions: 480000002 cycles: 459238666 heartbeat IPC: 0.632109 cumulative IPC: 0.977142 (Simulation time: 2 hr 36 min 43 sec) 
Heartbeat CPU 2 instructions: 570000002 cycles: 465918775 heartbeat IPC: 1.15374 cumulative IPC: 1.14744 (Simulation time: 2 hr 38 min 21 sec) 
Heartbeat CPU 2 instructions: 580000003 cycles: 474549710 heartbeat IPC: 1.15862 cumulative IPC: 1.14765 (Simulation time: 2 hr 40 min 30 sec) 
Heartbeat CPU 3 instructions: 490000000 cycles: 475077875 heartbeat IPC: 0.631345 cumulative IPC: 0.965128 (Simulation time: 2 hr 40 min 37 sec) 
Heartbeat CPU 0 instructions: 190000002 cycles: 478541458 heartbeat IPC: 0.28649 cumulative IPC: 0.294382 (Simulation time: 2 hr 41 min 32 sec) 
Heartbeat CPU 2 instructions: 590000001 cycles: 483220411 heartbeat IPC: 1.15331 cumulative IPC: 1.14776 (Simulation time: 2 hr 42 min 43 sec) 
*** Reached end of trace for Core: 3 Repeating trace: ./traces/ligra/ligra_BellmanFord.com-lj.ungraph.gcc_6.3.0_O3.drop_7500M.length_250M.champsimtrace.xz
Heartbeat CPU 3 instructions: 500000002 cycles: 490926352 heartbeat IPC: 0.630976 cumulative IPC: 0.953902 (Simulation time: 2 hr 44 min 37 sec) 
Heartbeat CPU 2 instructions: 600000001 cycles: 491874294 heartbeat IPC: 1.15555 cumulative IPC: 1.1479 (Simulation time: 2 hr 44 min 53 sec) 
Heartbeat CPU 3 instructions: 510000000 cycles: 499300677 heartbeat IPC: 1.19413 cumulative IPC: 0.958092 (Simulation time: 2 hr 47 min 5 sec) 
Heartbeat CPU 2 instructions: 610000000 cycles: 500539874 heartbeat IPC: 1.15399 cumulative IPC: 1.14801 (Simulation time: 2 hr 47 min 27 sec) 
Heartbeat CPU 1 instructions: 200000001 cycles: 501974434 heartbeat IPC: 0.203409 cumulative IPC: 0.300924 (Simulation time: 2 hr 47 min 54 sec) 
Heartbeat CPU 3 instructions: 520000000 cycles: 507673915 heartbeat IPC: 1.19428 cumulative IPC: 0.962141 (Simulation time: 2 hr 49 min 37 sec) 
Heartbeat CPU 2 instructions: 620000003 cycles: 509226766 heartbeat IPC: 1.15116 cumulative IPC: 1.14807 (Simulation time: 2 hr 50 min 5 sec) 
Heartbeat CPU 0 instructions: 200000000 cycles: 513371882 heartbeat IPC: 0.287105 cumulative IPC: 0.293869 (Simulation time: 2 hr 51 min 20 sec) 
Heartbeat CPU 3 instructions: 530000001 cycles: 516044081 heartbeat IPC: 1.19472 cumulative IPC: 0.966059 (Simulation time: 2 hr 52 min 8 sec) 
Heartbeat CPU 2 instructions: 630000002 cycles: 517929031 heartbeat IPC: 1.14913 cumulative IPC: 1.14809 (Simulation time: 2 hr 52 min 42 sec) 
Heartbeat CPU 3 instructions: 540000001 cycles: 524414596 heartbeat IPC: 1.19467 cumulative IPC: 0.969846 (Simulation time: 2 hr 54 min 40 sec) 
Heartbeat CPU 2 instructions: 640000003 cycles: 526624309 heartbeat IPC: 1.15005 cumulative IPC: 1.14812 (Simulation time: 2 hr 55 min 22 sec) 
Heartbeat CPU 3 instructions: 550000000 cycles: 532782322 heartbeat IPC: 1.19507 cumulative IPC: 0.973516 (Simulation time: 2 hr 57 min 16 sec) 
Heartbeat CPU 2 instructions: 650000000 cycles: 535310527 heartbeat IPC: 1.15125 cumulative IPC: 1.14817 (Simulation time: 2 hr 58 min 2 sec) 
Heartbeat CPU 3 instructions: 560000000 cycles: 541154433 heartbeat IPC: 1.19444 cumulative IPC: 0.977059 (Simulation time: 2 hr 59 min 50 sec) 
Heartbeat CPU 2 instructions: 660000000 cycles: 544002159 heartbeat IPC: 1.15053 cumulative IPC: 1.14821 (Simulation time: 3 hr 0 min 43 sec) 
Heartbeat CPU 1 instructions: 210000001 cycles: 546970859 heartbeat IPC: 0.22224 cumulative IPC: 0.294216 (Simulation time: 3 hr 1 min 37 sec) 
Heartbeat CPU 0 instructions: 210000000 cycles: 547389227 heartbeat IPC: 0.293968 cumulative IPC: 0.293875 (Simulation time: 3 hr 1 min 46 sec) 
Heartbeat CPU 3 instructions: 570000001 cycles: 549524218 heartbeat IPC: 1.19477 cumulative IPC: 0.980495 (Simulation time: 3 hr 2 min 27 sec) 
Heartbeat CPU 2 instructions: 670000000 cycles: 552605607 heartbeat IPC: 1.16232 cumulative IPC: 1.14844 (Simulation time: 3 hr 3 min 26 sec) 
Heartbeat CPU 3 instructions: 580000001 cycles: 557893451 heartbeat IPC: 1.19485 cumulative IPC: 0.983825 (Simulation time: 3 hr 5 min 4 sec) 
Heartbeat CPU 2 instructions: 680000002 cycles: 561289717 heartbeat IPC: 1.15153 cumulative IPC: 1.14849 (Simulation time: 3 hr 6 min 4 sec) 
Heartbeat CPU 3 instructions: 590000000 cycles: 566264059 heartbeat IPC: 1.19466 cumulative IPC: 0.987051 (Simulation time: 3 hr 7 min 34 sec) 
Heartbeat CPU 2 instructions: 690000002 cycles: 570026553 heartbeat IPC: 1.14458 cumulative IPC: 1.14843 (Simulation time: 3 hr 8 min 42 sec) 
Heartbeat CPU 3 instructions: 600000000 cycles: 574633465 heartbeat IPC: 1.19483 cumulative IPC: 0.990182 (Simulation time: 3 hr 10 min 4 sec) 
Heartbeat CPU 2 instructions: 700000000 cycles: 578786777 heartbeat IPC: 1.14152 cumulative IPC: 1.14832 (Simulation time: 3 hr 11 min 20 sec) 
Heartbeat CPU 0 instructions: 220000000 cycles: 580727746 heartbeat IPC: 0.299953 cumulative IPC: 0.294236 (Simulation time: 3 hr 11 min 56 sec) 
Heartbeat CPU 3 instructions: 610000000 cycles: 583004822 heartbeat IPC: 1.19455 cumulative IPC: 0.993216 (Simulation time: 3 hr 12 min 38 sec) 
Heartbeat CPU 2 instructions: 710000002 cycles: 587523406 heartbeat IPC: 1.14461 cumulative IPC: 1.14826 (Simulation time: 3 hr 14 min 0 sec) 
Heartbeat CPU 3 instructions: 620000001 cycles: 591374949 heartbeat IPC: 1.19473 cumulative IPC: 0.996164 (Simulation time: 3 hr 15 min 8 sec) 
Heartbeat CPU 1 instructions: 220000000 cycles: 591881400 heartbeat IPC: 0.222665 cumulative IPC: 0.288605 (Simulation time: 3 hr 15 min 17 sec) 
Heartbeat CPU 2 instructions: 720000002 cycles: 596341343 heartbeat IPC: 1.13405 cumulative IPC: 1.14804 (Simulation time: 3 hr 16 min 37 sec) 
Heartbeat CPU 3 instructions: 630000000 cycles: 599746441 heartbeat IPC: 1.19453 cumulative IPC: 0.999024 (Simulation time: 3 hr 17 min 36 sec) 
Heartbeat CPU 2 instructions: 730000000 cycles: 605060601 heartbeat IPC: 1.14689 cumulative IPC: 1.14803 (Simulation time: 3 hr 19 min 8 sec) 
Heartbeat CPU 3 instructions: 640000000 cycles: 608120067 heartbeat IPC: 1.19423 cumulative IPC: 1.0018 (Simulation time: 3 hr 20 min 3 sec) 
Heartbeat CPU 2 instructions: 740000002 cycles: 613761208 heartbeat IPC: 1.14935 cumulative IPC: 1.14805 (Simulation time: 3 hr 21 min 41 sec) 
Heartbeat CPU 0 instructions: 230000000 cycles: 615704838 heartbeat IPC: 0.285901 cumulative IPC: 0.293747 (Simulation time: 3 hr 22 min 16 sec) 
Heartbeat CPU 3 instructions: 650000001 cycles: 616488615 heartbeat IPC: 1.19495 cumulative IPC: 1.00451 (Simulation time: 3 hr 22 min 30 sec) 
*** Reached end of trace for Core: 2 Repeating trace: ./traces/ligra/ligra_Triangle.com-lj.ungraph.gcc_6.3.0_O3.drop_3500M.length_250M.champsimtrace.xz
Heartbeat CPU 2 instructions: 750000001 cycles: 622423146 heartbeat IPC: 1.15448 cumulative IPC: 1.14814 (Simulation time: 3 hr 24 min 18 sec) 
Heartbeat CPU 3 instructions: 660000000 cycles: 624858486 heartbeat IPC: 1.19476 cumulative IPC: 1.00713 (Simulation time: 3 hr 25 min 1 sec) 
Heartbeat CPU 2 instructions: 760000000 cycles: 631072861 heartbeat IPC: 1.15611 cumulative IPC: 1.14825 (Simulation time: 3 hr 26 min 50 sec) 
Heartbeat CPU 3 instructions: 670000000 cycles: 633229902 heartbeat IPC: 1.19454 cumulative IPC: 1.00969 (Simulation time: 3 hr 27 min 22 sec) 
Heartbeat CPU 2 instructions: 770000000 cycles: 639746115 heartbeat IPC: 1.15297 cumulative IPC: 1.14832 (Simulation time: 3 hr 29 min 18 sec) 
Heartbeat CPU 3 instructions: 680000000 cycles: 641596128 heartbeat IPC: 1.19528 cumulative IPC: 1.01218 (Simulation time: 3 hr 29 min 52 sec) 
Heartbeat CPU 1 instructions: 230000003 cycles: 644411661 heartbeat IPC: 0.190367 cumulative IPC: 0.280351 (Simulation time: 3 hr 30 min 41 sec) 
Heartbeat CPU 2 instructions: 780000002 cycles: 648388253 heartbeat IPC: 1.15712 cumulative IPC: 1.14844 (Simulation time: 3 hr 31 min 51 sec) 
Heartbeat CPU 0 instructions: 240000000 cycles: 648721491 heartbeat IPC: 0.302877 cumulative IPC: 0.294226 (Simulation time: 3 hr 31 min 56 sec) 
Heartbeat CPU 3 instructions: 690000000 cycles: 651049169 heartbeat IPC: 1.05786 cumulative IPC: 1.01287 (Simulation time: 3 hr 32 min 35 sec) 
Heartbeat CPU 2 instructions: 790000000 cycles: 657040545 heartbeat IPC: 1.15576 cumulative IPC: 1.14854 (Simulation time: 3 hr 33 min 55 sec) 
Heartbeat CPU 2 instructions: 800000000 cycles: 665683232 heartbeat IPC: 1.15705 cumulative IPC: 1.14865 (Simulation time: 3 hr 36 min 12 sec) 
Heartbeat CPU 3 instructions: 700000002 cycles: 666870314 heartbeat IPC: 0.632066 cumulative IPC: 1.00357 (Simulation time: 3 hr 36 min 29 sec) 
Heartbeat CPU 2 instructions: 810000001 cycles: 674323882 heartbeat IPC: 1.15732 cumulative IPC: 1.14877 (Simulation time: 3 hr 38 min 15 sec) 
Heartbeat CPU 3 instructions: 710000002 cycles: 682704871 heartbeat IPC: 0.63153 cumulative IPC: 0.994688 (Simulation time: 3 hr 40 min 11 sec) 
Heartbeat CPU 0 instructions: 250000002 cycles: 682986095 heartbeat IPC: 0.291846 cumulative IPC: 0.294103 (Simulation time: 3 hr 40 min 14 sec) 
Heartbeat CPU 2 instructions: 820000002 cycles: 682991540 heartbeat IPC: 1.15371 cumulative IPC: 1.14883 (Simulation time: 3 hr 40 min 14 sec) 
Heartbeat CPU 1 instructions: 240000000 cycles: 687649359 heartbeat IPC: 0.23128 cumulative IPC: 0.277177 (Simulation time: 3 hr 41 min 17 sec) 
Heartbeat CPU 2 instructions: 830000003 cycles: 691623755 heartbeat IPC: 1.15845 cumulative IPC: 1.14895 (Simulation time: 3 hr 42 min 8 sec) 
Heartbeat CPU 3 instructions: 720000001 cycles: 698537853 heartbeat IPC: 0.631593 cumulative IPC: 0.986225 (Simulation time: 3 hr 43 min 40 sec) 
Finished CPU 0 instructions: 200000000 cycles: 680501706 cumulative IPC: 0.293901 (Simulation time: 3 hr 43 min 54 sec) 
Heartbeat CPU 2 instructions: 840000001 cycles: 700294381 heartbeat IPC: 1.15332 cumulative IPC: 1.14901 (Simulation time: 3 hr 44 min 3 sec) 
Heartbeat CPU 2 instructions: 850000001 cycles: 708947003 heartbeat IPC: 1.15572 cumulative IPC: 1.14909 (Simulation time: 3 hr 46 min 0 sec) 
Heartbeat CPU 3 instructions: 730000000 cycles: 714358991 heartbeat IPC: 0.632066 cumulative IPC: 0.978165 (Simulation time: 3 hr 47 min 14 sec) 
Heartbeat CPU 0 instructions: 260000002 cycles: 717543471 heartbeat IPC: 0.289374 cumulative IPC: 0.293869 (Simulation time: 3 hr 47 min 58 sec) 
Heartbeat CPU 2 instructions: 860000001 cycles: 717611329 heartbeat IPC: 1.15416 cumulative IPC: 1.14916 (Simulation time: 3 hr 47 min 59 sec) 
Heartbeat CPU 2 instructions: 870000001 cycles: 726298974 heartbeat IPC: 1.15106 cumulative IPC: 1.14918 (Simulation time: 3 hr 49 min 58 sec) 
Heartbeat CPU 3 instructions: 740000000 cycles: 730198744 heartbeat IPC: 0.631323 cumulative IPC: 0.970438 (Simulation time: 3 hr 50 min 57 sec) 
Heartbeat CPU 2 instructions: 880000000 cycles: 734999688 heartbeat IPC: 1.14933 cumulative IPC: 1.14918 (Simulation time: 3 hr 52 min 2 sec) 
Heartbeat CPU 2 instructions: 890000001 cycles: 743694633 heartbeat IPC: 1.15009 cumulative IPC: 1.14919 (Simulation time: 3 hr 53 min 56 sec) 
*** Reached end of trace for Core: 3 Repeating trace: ./traces/ligra/ligra_BellmanFord.com-lj.ungraph.gcc_6.3.0_O3.drop_7500M.length_250M.champsimtrace.xz
Heartbeat CPU 3 instructions: 750000003 cycles: 746042246 heartbeat IPC: 0.631174 cumulative IPC: 0.963044 (Simulation time: 3 hr 54 min 26 sec) 
*** Reached end of trace for Core: 1 Repeating trace: ./traces/ligra/ligra_Components-Shortcut.com-lj.ungraph.gcc_6.3.0_O3.drop_22000M.length_250M.champsimtrace.xz
Heartbeat CPU 1 instructions: 250000003 cycles: 747573362 heartbeat IPC: 0.166878 cumulative IPC: 0.268103 (Simulation time: 3 hr 54 min 51 sec) 
Heartbeat CPU 0 instructions: 270000000 cycles: 751840854 heartbeat IPC: 0.291567 cumulative IPC: 0.293762 (Simulation time: 3 hr 56 min 7 sec) 
Heartbeat CPU 2 instructions: 900000000 cycles: 752382081 heartbeat IPC: 1.15109 cumulative IPC: 1.14922 (Simulation time: 3 hr 56 min 15 sec) 
Heartbeat CPU 3 instructions: 760000001 cycles: 754417952 heartbeat IPC: 1.19393 cumulative IPC: 0.965674 (Simulation time: 3 hr 56 min 54 sec) 
Finished CPU 1 instructions: 200000002 cycles: 737580798 cumulative IPC: 0.271157 (Simulation time: 3 hr 57 min 37 sec) 

ChampSim completed all CPUs

Total Simulation Statistics (not including warmup)

CPU 0 cumulative IPC: 0.293836 instructions: 216727434 cycles: 737580798
ITLB TOTAL     ACCESS:   39341717  HIT:   39341717  MISS:          0  HIT %:        100  MISS %:          0   MPKI: 0
ITLB LOAD      ACCESS:          0  HIT:          0  MISS:          0  HIT %:       -nan  MISS %:       -nan   MPKI: 0
ITLB RFO       ACCESS:          0  HIT:          0  MISS:          0  HIT %:       -nan  MISS %:       -nan   MPKI: 0
ITLB PREFETCH  ACCESS:          0  HIT:          0  MISS:          0  HIT %:       -nan  MISS %:       -nan   MPKI: 0
ITLB WRITEBACK ACCESS:          0  HIT:          0  MISS:          0  HIT %:       -nan  MISS %:       -nan   MPKI: 0
DTLB TOTAL     ACCESS:   67527765  HIT:   64314507  MISS:    3213258  HIT %:    95.2416  MISS %:    4.75842   MPKI: 14.8263
DTLB LOAD      ACCESS:          0  HIT:          0  MISS:          0  HIT %:       -nan  MISS %:       -nan   MPKI: 0
DTLB RFO       ACCESS:          0  HIT:          0  MISS:          0  HIT %:       -nan  MISS %:       -nan   MPKI: 0
DTLB PREFETCH  ACCESS:          0  HIT:          0  MISS:          0  HIT %:       -nan  MISS %:       -nan   MPKI: 0
DTLB WRITEBACK ACCESS:          0  HIT:          0  MISS:          0  HIT %:       -nan  MISS %:       -nan   MPKI: 0
STLB TOTAL     ACCESS:    9064043  HIT:    9019181  MISS:      44862  HIT %:    99.5051  MISS %:   0.494945   MPKI: 0.206997
STLB LOAD      ACCESS:          0  HIT:          0  MISS:          0  HIT %:       -nan  MISS %:       -nan   MPKI: 0
STLB RFO       ACCESS:          0  HIT:          0  MISS:          0  HIT %:       -nan  MISS %:       -nan   MPKI: 0
STLB PREFETCH  ACCESS:          0  HIT:          0  MISS:          0  HIT %:       -nan  MISS %:       -nan   MPKI: 0
STLB WRITEBACK ACCESS:          0  HIT:          0  MISS:          0  HIT %:       -nan  MISS %:       -nan   MPKI: 0
L1D TOTAL     ACCESS:   98201513  HIT:   90661039  MISS:    7540474  HIT %:    92.3214  MISS %:    7.67857   MPKI: 34.7924
L1D LOAD      ACCESS:   57998456  HIT:   52688813  MISS:    5309643  HIT %:    90.8452  MISS %:     9.1548   MPKI: 24.4992
L1D RFO       ACCESS:   24195525  HIT:   23379169  MISS:     816356  HIT %:     96.626  MISS %:      3.374   MPKI: 3.76674
L1D PREFETCH  ACCESS:   16007532  HIT:   14593057  MISS:    1414475  HIT %:    91.1637  MISS %:    8.83631   MPKI: 6.52652
L1D WRITEBACK ACCESS:          0  HIT:          0  MISS:          0  HIT %:       -nan  MISS %:       -nan   MPKI: 0
L1I TOTAL     ACCESS:   41242863  HIT:   41242861  MISS:          2  HIT %:        100  MISS %: 4.84932e-06   MPKI: 9.22818e-06
L1I LOAD      ACCESS:   41242863  HIT:   41242861  MISS:          2  HIT %:        100  MISS %: 4.84932e-06   MPKI: 9.22818e-06
L1I RFO       ACCESS:          0  HIT:          0  MISS:          0  HIT %:       -nan  MISS %:       -nan   MPKI: 0
L1I PREFETCH  ACCESS:          0  HIT:          0  MISS:          0  HIT %:       -nan  MISS %:       -nan   MPKI: 0
L1I WRITEBACK ACCESS:          0  HIT:          0  MISS:          0  HIT %:       -nan  MISS %:       -nan   MPKI: 0
L2C TOTAL     ACCESS:   11310065  HIT:    6558560  MISS:    4751505  HIT %:    57.9887  MISS %:    42.0113   MPKI: 21.9239
L2C LOAD      ACCESS:    5266041  HIT:    2506362  MISS:    2759679  HIT %:    47.5948  MISS %:    52.4052   MPKI: 12.7334
L2C RFO       ACCESS:     816346  HIT:     469263  MISS:     347083  HIT %:    57.4833  MISS %:    42.5167   MPKI: 1.60147
L2C PREFETCH  ACCESS:    3607421  HIT:    1995007  MISS:    1612414  HIT %:    55.3029  MISS %:    44.6971   MPKI: 7.43982
L2C WRITEBACK ACCESS:    1132989  HIT:    1118897  MISS:      14092  HIT %:    98.7562  MISS %:    1.24379   MPKI: 0.0650218
PSCL5 TOTAL     ACCESS:     485613  HIT:     485613  MISS:          0  HIT %:        100  MISS %:          0   MPKI: 0
PSCL5 LOAD      ACCESS:          0  HIT:          0  MISS:          0  HIT %:       -nan  MISS %:       -nan   MPKI: 0
PSCL5 RFO       ACCESS:          0  HIT:          0  MISS:          0  HIT %:       -nan  MISS %:       -nan   MPKI: 0
PSCL5 PREFETCH  ACCESS:          0  HIT:          0  MISS:          0  HIT %:       -nan  MISS %:       -nan   MPKI: 0
PSCL5 WRITEBACK ACCESS:          0  HIT:          0  MISS:          0  HIT %:       -nan  MISS %:       -nan   MPKI: 0
PSCL4 TOTAL     ACCESS:     485613  HIT:     485613  MISS:          0  HIT %:        100  MISS %:          0   MPKI: 0
PSCL4 LOAD      ACCESS:          0  HIT:          0  MISS:          0  HIT %:       -nan  MISS %:       -nan   MPKI: 0
PSCL4 RFO       ACCESS:          0  HIT:          0  MISS:          0  HIT %:       -nan  MISS %:       -nan   MPKI: 0
PSCL4 PREFETCH  ACCESS:          0  HIT:          0  MISS:          0  HIT %:       -nan  MISS %:       -nan   MPKI: 0
PSCL4 WRITEBACK ACCESS:          0  HIT:          0  MISS:          0  HIT %:       -nan  MISS %:       -nan   MPKI: 0
PSCL3 TOTAL     ACCESS:     485613  HIT:     485613  MISS:          0  HIT %:        100  MISS %:          0   MPKI: 0
PSCL3 LOAD      ACCESS:          0  HIT:          0  MISS:          0  HIT %:       -nan  MISS %:       -nan   MPKI: 0
PSCL3 RFO       ACCESS:          0  HIT:          0  MISS:          0  HIT %:       -nan  MISS %:       -nan   MPKI: 0
PSCL3 PREFETCH  ACCESS:          0  HIT:          0  MISS:          0  HIT %:       -nan  MISS %:       -nan   MPKI: 0
PSCL3 WRITEBACK ACCESS:          0  HIT:          0  MISS:          0  HIT %:       -nan  MISS %:       -nan   MPKI: 0
PSCL2 TOTAL     ACCESS:     483328  HIT:     482817  MISS:        511  HIT %:    99.8943  MISS %:   0.105725   MPKI: 0.0023578
PSCL2 LOAD      ACCESS:          0  HIT:          0  MISS:          0  HIT %:       -nan  MISS %:       -nan   MPKI: 0
PSCL2 RFO       ACCESS:          0  HIT:          0  MISS:          0  HIT %:       -nan  MISS %:       -nan   MPKI: 0
PSCL2 PREFETCH  ACCESS:          0  HIT:          0  MISS:          0  HIT %:       -nan  MISS %:       -nan   MPKI: 0
PSCL2 WRITEBACK ACCESS:          0  HIT:          0  MISS:          0  HIT %:       -nan  MISS %:       -nan   MPKI: 0
LLC TOTAL     ACCESS:    5282703  HIT:    2939725  MISS:    2342978  HIT %:    55.6481  MISS %:    44.3519   MPKI: 10.8107
LLC LOAD      ACCESS:    2755608  HIT:    1888048  MISS:     867560  HIT %:    68.5166  MISS %:    31.4834   MPKI: 4.003
LLC RFO       ACCESS:     347080  HIT:     342868  MISS:       4212  HIT %:    98.7864  MISS %:    1.21355   MPKI: 0.0194345
LLC PREFETCH  ACCESS:    1616481  HIT:     160765  MISS:    1455716  HIT %:    9.94537  MISS %:    90.0546   MPKI: 6.71681
LLC WRITEBACK ACCESS:     545297  HIT:     536596  MISS:       8701  HIT %:    98.4044  MISS %:    1.59564   MPKI: 0.0401472

RAW hits: 3682441
Loads Generated: 76197277
Loads sent to L1D: 72514836
Stores Generated: 25685179
Stores sent to L1D: 25685179

CPU 1 cumulative IPC: 0.271157 instructions: 200000002 cycles: 737580798
ITLB TOTAL     ACCESS:   43106990  HIT:   43106990  MISS:          0  HIT %:        100  MISS %:          0   MPKI: 0
ITLB LOAD      ACCESS:          0  HIT:          0  MISS:          0  HIT %:       -nan  MISS %:       -nan   MPKI: 0
ITLB RFO       ACCESS:          0  HIT:          0  MISS:          0  HIT %:       -nan  MISS %:       -nan   MPKI: 0
ITLB PREFETCH  ACCESS:          0  HIT:          0  MISS:          0  HIT %:       -nan  MISS %:       -nan   MPKI: 0
ITLB WRITEBACK ACCESS:          0  HIT:          0  MISS:          0  HIT %:       -nan  MISS %:       -nan   MPKI: 0
DTLB TOTAL     ACCESS:   57411021  HIT:   44231146  MISS:   13179875  HIT %:     77.043  MISS %:     22.957   MPKI: 65.8994
DTLB LOAD      ACCESS:          0  HIT:          0  MISS:          0  HIT %:       -nan  MISS %:       -nan   MPKI: 0
DTLB RFO       ACCESS:          0  HIT:          0  MISS:          0  HIT %:       -nan  MISS %:       -nan   MPKI: 0
DTLB PREFETCH  ACCESS:          0  HIT:          0  MISS:          0  HIT %:       -nan  MISS %:       -nan   MPKI: 0
DTLB WRITEBACK ACCESS:          0  HIT:          0  MISS:          0  HIT %:       -nan  MISS %:       -nan   MPKI: 0
STLB TOTAL     ACCESS:   29330160  HIT:   28153689  MISS:    1176471  HIT %:    95.9889  MISS %:    4.01113   MPKI: 5.88235
STLB LOAD      ACCESS:          0  HIT:          0  MISS:          0  HIT %:       -nan  MISS %:       -nan   MPKI: 0
STLB RFO       ACCESS:          0  HIT:          0  MISS:          0  HIT %:       -nan  MISS %:       -nan   MPKI: 0
STLB PREFETCH  ACCESS:          0  HIT:          0  MISS:          0  HIT %:       -nan  MISS %:       -nan   MPKI: 0
STLB WRITEBACK ACCESS:          0  HIT:          0  MISS:          0  HIT %:       -nan  MISS %:       -nan   MPKI: 0
L1D TOTAL     ACCESS:  136220941  HIT:  121175543  MISS:   15045398  HIT %:    88.9552  MISS %:    11.0448   MPKI: 75.227
L1D LOAD      ACCESS:   59301224  HIT:   46006545  MISS:   13294679  HIT %:    77.5811  MISS %:    22.4189   MPKI: 66.4734
L1D RFO       ACCESS:    1817706  HIT:    1817706  MISS:          0  HIT %:        100  MISS %:          0   MPKI: 0
L1D PREFETCH  ACCESS:   75102011  HIT:   73351292  MISS:    1750719  HIT %:    97.6689  MISS %:    2.33112   MPKI: 8.75359
L1D WRITEBACK ACCESS:          0  HIT:          0  MISS:          0  HIT %:       -nan  MISS %:       -nan   MPKI: 0
L1I TOTAL     ACCESS:   45651586  HIT:   45651586  MISS:          0  HIT %:        100  MISS %:          0   MPKI: 0
L1I LOAD      ACCESS:   45651586  HIT:   45651586  MISS:          0  HIT %:        100  MISS %:          0   MPKI: 0
L1I RFO       ACCESS:          0  HIT:          0  MISS:          0  HIT %:       -nan  MISS %:       -nan   MPKI: 0
L1I PREFETCH  ACCESS:          0  HIT:          0  MISS:          0  HIT %:       -nan  MISS %:       -nan   MPKI: 0
L1I WRITEBACK ACCESS:          0  HIT:          0  MISS:          0  HIT %:       -nan  MISS %:       -nan   MPKI: 0
L2C TOTAL     ACCESS:   34930777  HIT:   22596034  MISS:   12334743  HIT %:     64.688  MISS %:     35.312   MPKI: 61.6737
L2C LOAD      ACCESS:   13285323  HIT:    2786210  MISS:   10499113  HIT %:    20.9721  MISS %:    79.0279   MPKI: 52.4956
L2C RFO       ACCESS:          0  HIT:          0  MISS:          0  HIT %:       -nan  MISS %:       -nan   MPKI: 0
L2C PREFETCH  ACCESS:   18266308  HIT:   16511369  MISS:    1754939  HIT %:    90.3925  MISS %:    9.60752   MPKI: 8.77469
L2C WRITEBACK ACCESS:     113639  HIT:     111634  MISS:       2005  HIT %:    98.2356  MISS %:    1.76436   MPKI: 0.010025
PSCL5 TOTAL     ACCESS:    3265491  HIT:    3265491  MISS:          0  HIT %:        100  MISS %:          0   MPKI: 0
PSCL5 LOAD      ACCESS:          0  HIT:          0  MISS:          0  HIT %:       -nan  MISS %:       -nan   MPKI: 0
PSCL5 RFO       ACCESS:          0  HIT:          0  MISS:          0  HIT %:       -nan  MISS %:       -nan   MPKI: 0
PSCL5 PREFETCH  ACCESS:          0  HIT:          0  MISS:          0  HIT %:       -nan  MISS %:       -nan   MPKI: 0
PSCL5 WRITEBACK ACCESS:          0  HIT:          0  MISS:          0  HIT %:       -nan  MISS %:       -nan   MPKI: 0
PSCL4 TOTAL     ACCESS:    3265491  HIT:    3265491  MISS:          0  HIT %:        100  MISS %:          0   MPKI: 0
PSCL4 LOAD      ACCESS:          0  HIT:          0  MISS:          0  HIT %:       -nan  MISS %:       -nan   MPKI: 0
PSCL4 RFO       ACCESS:          0  HIT:          0  MISS:          0  HIT %:       -nan  MISS %:       -nan   MPKI: 0
PSCL4 PREFETCH  ACCESS:          0  HIT:          0  MISS:          0  HIT %:       -nan  MISS %:       -nan   MPKI: 0
PSCL4 WRITEBACK ACCESS:          0  HIT:          0  MISS:          0  HIT %:       -nan  MISS %:       -nan   MPKI: 0
PSCL3 TOTAL     ACCESS:    3265491  HIT:    3265491  MISS:          0  HIT %:        100  MISS %:          0   MPKI: 0
PSCL3 LOAD      ACCESS:          0  HIT:          0  MISS:          0  HIT %:       -nan  MISS %:       -nan   MPKI: 0
PSCL3 RFO       ACCESS:          0  HIT:          0  MISS:          0  HIT %:       -nan  MISS %:       -nan   MPKI: 0
PSCL3 PREFETCH  ACCESS:          0  HIT:          0  MISS:          0  HIT %:       -nan  MISS %:       -nan   MPKI: 0
PSCL3 WRITEBACK ACCESS:          0  HIT:          0  MISS:          0  HIT %:       -nan  MISS %:       -nan   MPKI: 0
PSCL2 TOTAL     ACCESS:    3261613  HIT:    3261542  MISS:         71  HIT %:    99.9978  MISS %: 0.00217684   MPKI: 0.000355
PSCL2 LOAD      ACCESS:          0  HIT:          0  MISS:          0  HIT %:       -nan  MISS %:       -nan   MPKI: 0
PSCL2 RFO       ACCESS:          0  HIT:          0  MISS:          0  HIT %:       -nan  MISS %:       -nan   MPKI: 0
PSCL2 PREFETCH  ACCESS:          0  HIT:          0  MISS:          0  HIT %:       -nan  MISS %:       -nan   MPKI: 0
PSCL2 WRITEBACK ACCESS:          0  HIT:          0  MISS:          0  HIT %:       -nan  MISS %:       -nan   MPKI: 0
LLC TOTAL     ACCESS:   12446360  HIT:    7076307  MISS:    5370053  HIT %:    56.8544  MISS %:    43.1456   MPKI: 26.8503
LLC LOAD      ACCESS:   10498640  HIT:    6889667  MISS:    3608973  HIT %:    65.6244  MISS %:    34.3756   MPKI: 18.0449
LLC RFO       ACCESS:          0  HIT:          0  MISS:          0  HIT %:       -nan  MISS %:       -nan   MPKI: 0
LLC PREFETCH  ACCESS:    1755411  HIT:       4438  MISS:    1750973  HIT %:   0.252818  MISS %:    99.7472   MPKI: 8.75486
LLC WRITEBACK ACCESS:     113623  HIT:     112168  MISS:       1455  HIT %:    98.7194  MISS %:    1.28055   MPKI: 0.007275

RAW hits: 2479838
Loads Generated: 83141651
Loads sent to L1D: 80661813
Stores Generated: 1817708
Stores sent to L1D: 1817708

CPU 2 cumulative IPC: 1.14923 instructions: 847651737 cycles: 737580798
ITLB TOTAL     ACCESS:  140633800  HIT:  140633800  MISS:          0  HIT %:        100  MISS %:          0   MPKI: 0
ITLB LOAD      ACCESS:          0  HIT:          0  MISS:          0  HIT %:       -nan  MISS %:       -nan   MPKI: 0
ITLB RFO       ACCESS:          0  HIT:          0  MISS:          0  HIT %:       -nan  MISS %:       -nan   MPKI: 0
ITLB PREFETCH  ACCESS:          0  HIT:          0  MISS:          0  HIT %:       -nan  MISS %:       -nan   MPKI: 0
ITLB WRITEBACK ACCESS:          0  HIT:          0  MISS:          0  HIT %:       -nan  MISS %:       -nan   MPKI: 0
DTLB TOTAL     ACCESS:  143470686  HIT:  143423305  MISS:      47381  HIT %:     99.967  MISS %:  0.0330249   MPKI: 0.0558968
DTLB LOAD      ACCESS:          0  HIT:          0  MISS:          0  HIT %:       -nan  MISS %:       -nan   MPKI: 0
DTLB RFO       ACCESS:          0  HIT:          0  MISS:          0  HIT %:       -nan  MISS %:       -nan   MPKI: 0
DTLB PREFETCH  ACCESS:          0  HIT:          0  MISS:          0  HIT %:       -nan  MISS %:       -nan   MPKI: 0
DTLB WRITEBACK ACCESS:          0  HIT:          0  MISS:          0  HIT %:       -nan  MISS %:       -nan   MPKI: 0
STLB TOTAL     ACCESS:   52605350  HIT:   52557968  MISS:      47382  HIT %:    99.9099  MISS %:  0.0900707   MPKI: 0.055898
STLB LOAD      ACCESS:          0  HIT:          0  MISS:          0  HIT %:       -nan  MISS %:       -nan   MPKI: 0
STLB RFO       ACCESS:          0  HIT:          0  MISS:          0  HIT %:       -nan  MISS %:       -nan   MPKI: 0
STLB PREFETCH  ACCESS:          0  HIT:          0  MISS:          0  HIT %:       -nan  MISS %:       -nan   MPKI: 0
STLB WRITEBACK ACCESS:          0  HIT:          0  MISS:          0  HIT %:       -nan  MISS %:       -nan   MPKI: 0
L1D TOTAL     ACCESS:  338837456  HIT:  335805495  MISS:    3031961  HIT %:    99.1052  MISS %:   0.894813   MPKI: 3.57689
L1D LOAD      ACCESS:   53037438  HIT:   53031862  MISS:       5576  HIT %:    99.9895  MISS %:  0.0105133   MPKI: 0.00657817
L1D RFO       ACCESS:   39089501  HIT:   37573536  MISS:    1515965  HIT %:    96.1218  MISS %:    3.87819   MPKI: 1.78843
L1D PREFETCH  ACCESS:  246710517  HIT:  245200097  MISS:    1510420  HIT %:    99.3878  MISS %:   0.612224   MPKI: 1.78189
L1D WRITEBACK ACCESS:          0  HIT:          0  MISS:          0  HIT %:       -nan  MISS %:       -nan   MPKI: 0
L1I TOTAL     ACCESS:  140633799  HIT:  140633799  MISS:          0  HIT %:        100  MISS %:          0   MPKI: 0
L1I LOAD      ACCESS:  140633799  HIT:  140633799  MISS:          0  HIT %:        100  MISS %:          0   MPKI: 0
L1I RFO       ACCESS:          0  HIT:          0  MISS:          0  HIT %:       -nan  MISS %:       -nan   MPKI: 0
L1I PREFETCH  ACCESS:          0  HIT:          0  MISS:          0  HIT %:       -nan  MISS %:       -nan   MPKI: 0
L1I WRITEBACK ACCESS:          0  HIT:          0  MISS:          0  HIT %:       -nan  MISS %:       -nan   MPKI: 0
L2C TOTAL     ACCESS:    7666348  HIT:    4487846  MISS:    3178502  HIT %:    58.5396  MISS %:    41.4604   MPKI: 3.74977
L2C LOAD      ACCESS:       2741  HIT:          0  MISS:       2741  HIT %:          0  MISS %:        100   MPKI: 0.00323364
L2C RFO       ACCESS:    1515965  HIT:          0  MISS:    1515965  HIT %:          0  MISS %:        100   MPKI: 1.78843
L2C PREFETCH  ACCESS:    3629531  HIT:    2116275  MISS:    1513256  HIT %:    58.3071  MISS %:    41.6929   MPKI: 1.78523
L2C WRITEBACK ACCESS:    1515965  HIT:    1375381  MISS:     140584  HIT %:    90.7264  MISS %:    9.27357   MPKI: 0.165851
PSCL5 TOTAL     ACCESS:    1002146  HIT:    1002146  MISS:          0  HIT %:        100  MISS %:          0   MPKI: 0
PSCL5 LOAD      ACCESS:          0  HIT:          0  MISS:          0  HIT %:       -nan  MISS %:       -nan   MPKI: 0
PSCL5 RFO       ACCESS:          0  HIT:          0  MISS:          0  HIT %:       -nan  MISS %:       -nan   MPKI: 0
PSCL5 PREFETCH  ACCESS:          0  HIT:          0  MISS:          0  HIT %:       -nan  MISS %:       -nan   MPKI: 0
PSCL5 WRITEBACK ACCESS:          0  HIT:          0  MISS:          0  HIT %:       -nan  MISS %:       -nan   MPKI: 0
PSCL4 TOTAL     ACCESS:    1002146  HIT:    1002146  MISS:          0  HIT %:        100  MISS %:          0   MPKI: 0
PSCL4 LOAD      ACCESS:          0  HIT:          0  MISS:          0  HIT %:       -nan  MISS %:       -nan   MPKI: 0
PSCL4 RFO       ACCESS:          0  HIT:          0  MISS:          0  HIT %:       -nan  MISS %:       -nan   MPKI: 0
PSCL4 PREFETCH  ACCESS:          0  HIT:          0  MISS:          0  HIT %:       -nan  MISS %:       -nan   MPKI: 0
PSCL4 WRITEBACK ACCESS:          0  HIT:          0  MISS:          0  HIT %:       -nan  MISS %:       -nan   MPKI: 0
PSCL3 TOTAL     ACCESS:    1002146  HIT:    1002146  MISS:          0  HIT %:        100  MISS %:          0   MPKI: 0
PSCL3 LOAD      ACCESS:          0  HIT:          0  MISS:          0  HIT %:       -nan  MISS %:       -nan   MPKI: 0
PSCL3 RFO       ACCESS:          0  HIT:          0  MISS:          0  HIT %:       -nan  MISS %:       -nan   MPKI: 0
PSCL3 PREFETCH  ACCESS:          0  HIT:          0  MISS:          0  HIT %:       -nan  MISS %:       -nan   MPKI: 0
PSCL3 WRITEBACK ACCESS:          0  HIT:          0  MISS:          0  HIT %:       -nan  MISS %:       -nan   MPKI: 0
PSCL2 TOTAL     ACCESS:    1000175  HIT:    1000154  MISS:         21  HIT %:    99.9979  MISS %: 0.00209963   MPKI: 2.47743e-05
PSCL2 LOAD      ACCESS:          0  HIT:          0  MISS:          0  HIT %:       -nan  MISS %:       -nan   MPKI: 0
PSCL2 RFO       ACCESS:          0  HIT:          0  MISS:          0  HIT %:       -nan  MISS %:       -nan   MPKI: 0
PSCL2 PREFETCH  ACCESS:          0  HIT:          0  MISS:          0  HIT %:       -nan  MISS %:       -nan   MPKI: 0
PSCL2 WRITEBACK ACCESS:          0  HIT:          0  MISS:          0  HIT %:       -nan  MISS %:       -nan   MPKI: 0
LLC TOTAL     ACCESS:    4553778  HIT:    1215495  MISS:    3338283  HIT %:     26.692  MISS %:     73.308   MPKI: 3.93827
LLC LOAD      ACCESS:       2741  HIT:          0  MISS:       2741  HIT %:          0  MISS %:        100   MPKI: 0.00323364
LLC RFO       ACCESS:    1515965  HIT:          0  MISS:    1515965  HIT %:          0  MISS %:        100   MPKI: 1.78843
LLC PREFETCH  ACCESS:    1513256  HIT:          0  MISS:    1513256  HIT %:          0  MISS %:        100   MPKI: 1.78523
LLC WRITEBACK ACCESS:    1515860  HIT:    1215489  MISS:     300371  HIT %:    80.1848  MISS %:    19.8152   MPKI: 0.354357

RAW hits: 0
Loads Generated: 181271507
Loads sent to L1D: 181271507
Stores Generated: 97021743
Stores sent to L1D: 97021743

CPU 3 cumulative IPC: 0.966403 instructions: 712800540 cycles: 737580798
ITLB TOTAL     ACCESS:  114495001  HIT:  114495001  MISS:          0  HIT %:        100  MISS %:          0   MPKI: 0
ITLB LOAD      ACCESS:          0  HIT:          0  MISS:          0  HIT %:       -nan  MISS %:       -nan   MPKI: 0
ITLB RFO       ACCESS:          0  HIT:          0  MISS:          0  HIT %:       -nan  MISS %:       -nan   MPKI: 0
ITLB PREFETCH  ACCESS:          0  HIT:          0  MISS:          0  HIT %:       -nan  MISS %:       -nan   MPKI: 0
ITLB WRITEBACK ACCESS:          0  HIT:          0  MISS:          0  HIT %:       -nan  MISS %:       -nan   MPKI: 0
DTLB TOTAL     ACCESS:   81831460  HIT:   81750285  MISS:      81175  HIT %:    99.9008  MISS %:  0.0991978   MPKI: 0.113882
DTLB LOAD      ACCESS:          0  HIT:          0  MISS:          0  HIT %:       -nan  MISS %:       -nan   MPKI: 0
DTLB RFO       ACCESS:          0  HIT:          0  MISS:          0  HIT %:       -nan  MISS %:       -nan   MPKI: 0
DTLB PREFETCH  ACCESS:          0  HIT:          0  MISS:          0  HIT %:       -nan  MISS %:       -nan   MPKI: 0
DTLB WRITEBACK ACCESS:          0  HIT:          0  MISS:          0  HIT %:       -nan  MISS %:       -nan   MPKI: 0
STLB TOTAL     ACCESS:   45786713  HIT:   45705538  MISS:      81175  HIT %:    99.8227  MISS %:   0.177289   MPKI: 0.113882
STLB LOAD      ACCESS:          0  HIT:          0  MISS:          0  HIT %:       -nan  MISS %:       -nan   MPKI: 0
STLB RFO       ACCESS:          0  HIT:          0  MISS:          0  HIT %:       -nan  MISS %:       -nan   MPKI: 0
STLB PREFETCH  ACCESS:          0  HIT:          0  MISS:          0  HIT %:       -nan  MISS %:       -nan   MPKI: 0
STLB WRITEBACK ACCESS:          0  HIT:          0  MISS:          0  HIT %:       -nan  MISS %:       -nan   MPKI: 0
L1D TOTAL     ACCESS:  309263053  HIT:  304068332  MISS:    5194721  HIT %:    98.3203  MISS %:    1.67971   MPKI: 7.28776
L1D LOAD      ACCESS:   57856704  HIT:   57839216  MISS:      17488  HIT %:    99.9698  MISS %:  0.0302264   MPKI: 0.0245342
L1D RFO       ACCESS:    5166797  HIT:    2048148  MISS:    3118649  HIT %:    39.6406  MISS %:    60.3594   MPKI: 4.37521
L1D PREFETCH  ACCESS:  246239552  HIT:  244180968  MISS:    2058584  HIT %:     99.164  MISS %:   0.836009   MPKI: 2.88802
L1D WRITEBACK ACCESS:          0  HIT:          0  MISS:          0  HIT %:       -nan  MISS %:       -nan   MPKI: 0
L1I TOTAL     ACCESS:  114559625  HIT:  114559625  MISS:          0  HIT %:        100  MISS %:          0   MPKI: 0
L1I LOAD      ACCESS:  114559625  HIT:  114559625  MISS:          0  HIT %:        100  MISS %:          0   MPKI: 0
L1I RFO       ACCESS:          0  HIT:          0  MISS:          0  HIT %:       -nan  MISS %:       -nan   MPKI: 0
L1I PREFETCH  ACCESS:          0  HIT:          0  MISS:          0  HIT %:       -nan  MISS %:       -nan   MPKI: 0
L1I WRITEBACK ACCESS:          0  HIT:          0  MISS:          0  HIT %:       -nan  MISS %:       -nan   MPKI: 0
L2C TOTAL     ACCESS:   11478439  HIT:    6064871  MISS:    5413568  HIT %:    52.8371  MISS %:    47.1629   MPKI: 7.59479
L2C LOAD      ACCESS:      11812  HIT:          0  MISS:      11812  HIT %:          0  MISS %:        100   MPKI: 0.0165713
L2C RFO       ACCESS:    3118649  HIT:          0  MISS:    3118649  HIT %:          0  MISS %:        100   MPKI: 4.37521
L2C PREFETCH  ACCESS:    3914033  HIT:    1849774  MISS:    2064259  HIT %:    47.2601  MISS %:    52.7399   MPKI: 2.89598
L2C WRITEBACK ACCESS:    3118649  HIT:    2910245  MISS:     208404  HIT %:    93.3175  MISS %:    6.68251   MPKI: 0.292374
PSCL5 TOTAL     ACCESS:    1315172  HIT:    1315172  MISS:          0  HIT %:        100  MISS %:          0   MPKI: 0
PSCL5 LOAD      ACCESS:          0  HIT:          0  MISS:          0  HIT %:       -nan  MISS %:       -nan   MPKI: 0
PSCL5 RFO       ACCESS:          0  HIT:          0  MISS:          0  HIT %:       -nan  MISS %:       -nan   MPKI: 0
PSCL5 PREFETCH  ACCESS:          0  HIT:          0  MISS:          0  HIT %:       -nan  MISS %:       -nan   MPKI: 0
PSCL5 WRITEBACK ACCESS:          0  HIT:          0  MISS:          0  HIT %:       -nan  MISS %:       -nan   MPKI: 0
PSCL4 TOTAL     ACCESS:    1315172  HIT:    1315172  MISS:          0  HIT %:        100  MISS %:          0   MPKI: 0
PSCL4 LOAD      ACCESS:          0  HIT:          0  MISS:          0  HIT %:       -nan  MISS %:       -nan   MPKI: 0
PSCL4 RFO       ACCESS:          0  HIT:          0  MISS:          0  HIT %:       -nan  MISS %:       -nan   MPKI: 0
PSCL4 PREFETCH  ACCESS:          0  HIT:          0  MISS:          0  HIT %:       -nan  MISS %:       -nan   MPKI: 0
PSCL4 WRITEBACK ACCESS:          0  HIT:          0  MISS:          0  HIT %:       -nan  MISS %:       -nan   MPKI: 0
PSCL3 TOTAL     ACCESS:    1315172  HIT:    1315172  MISS:          0  HIT %:        100  MISS %:          0   MPKI: 0
PSCL3 LOAD      ACCESS:          0  HIT:          0  MISS:          0  HIT %:       -nan  MISS %:       -nan   MPKI: 0
PSCL3 RFO       ACCESS:          0  HIT:          0  MISS:          0  HIT %:       -nan  MISS %:       -nan   MPKI: 0
PSCL3 PREFETCH  ACCESS:          0  HIT:          0  MISS:          0  HIT %:       -nan  MISS %:       -nan   MPKI: 0
PSCL3 WRITEBACK ACCESS:          0  HIT:          0  MISS:          0  HIT %:       -nan  MISS %:       -nan   MPKI: 0
PSCL2 TOTAL     ACCESS:    1312746  HIT:    1312576  MISS:        170  HIT %:    99.9871  MISS %:    0.01295   MPKI: 0.000238496
PSCL2 LOAD      ACCESS:          0  HIT:          0  MISS:          0  HIT %:       -nan  MISS %:       -nan   MPKI: 0
PSCL2 RFO       ACCESS:          0  HIT:          0  MISS:          0  HIT %:       -nan  MISS %:       -nan   MPKI: 0
PSCL2 PREFETCH  ACCESS:          0  HIT:          0  MISS:          0  HIT %:       -nan  MISS %:       -nan   MPKI: 0
PSCL2 WRITEBACK ACCESS:          0  HIT:          0  MISS:          0  HIT %:       -nan  MISS %:       -nan   MPKI: 0
LLC TOTAL     ACCESS:    8323679  HIT:    2934500  MISS:    5389179  HIT %:    35.2548  MISS %:    64.7452   MPKI: 7.56057
LLC LOAD      ACCESS:      11812  HIT:          0  MISS:      11812  HIT %:          0  MISS %:        100   MPKI: 0.0165713
LLC RFO       ACCESS:    3118649  HIT:          0  MISS:    3118649  HIT %:          0  MISS %:        100   MPKI: 4.37521
LLC PREFETCH  ACCESS:    2064259  HIT:          0  MISS:    2064259  HIT %:          0  MISS %:        100   MPKI: 2.89598
LLC WRITEBACK ACCESS:    3118515  HIT:    2934438  MISS:     184077  HIT %:    94.0973  MISS %:    5.90271   MPKI: 0.258245

RAW hits: 0
Loads Generated: 132541631
Loads sent to L1D: 132541631
Stores Generated: 24949193
Stores sent to L1D: 24949196

Region of Interest Statistics

CPU 0 cumulative IPC: 0.293901 instructions: 200000000 cycles: 680501706
ITLB TOTAL     ACCESS:   36291097  HIT:   36291097  MISS:          0  HIT %:        100  MISS %:          0   MPKI: 0
ITLB LOAD TRANSLATION ACCESS:   36291097  HIT:   36291097  MISS:          0  HIT %:        100  MISS %:          0   MPKI: 0
ITLB PREFETCH  REQUESTED:          0  ISSUED:          0  USEFUL:          0  USELESS:          0
ITLB USEFUL LOAD PREFETCHES:          0 PREFETCH ISSUED TO LOWER LEVEL:          0  ACCURACY: -nan
ITLB TIMELY PREFETCHES:          0 LATE PREFETCHES: 0 DROPPED PREFETCHES: 0
ITLB PREFETCHES SAME FILL-ORIGIN LEVEL: 0 DIFFERENT FILL-ORIGIN LEVEL: 0
ITLB AVERAGE MISS LATENCY: -nan cycles
ITLB RQ	ACCESS:   41242865	FORWARD:          0	MERGED:    1901148	TO_CACHE:   39341717

DTLB TOTAL     ACCESS:   62289835  HIT:   59313480  MISS:    2976355  HIT %:    95.2218  MISS %:    4.77824   MPKI: 14.8818
DTLB LOAD TRANSLATION ACCESS:   62289835  HIT:   59313480  MISS:    2976355  HIT %:    95.2218  MISS %:    4.77824   MPKI: 14.8818
DTLB PREFETCH  REQUESTED:          0  ISSUED:          0  USEFUL:          0  USELESS:          0
DTLB USEFUL LOAD PREFETCHES:          0 PREFETCH ISSUED TO LOWER LEVEL:          0  ACCURACY: -nan
DTLB TIMELY PREFETCHES:          0 LATE PREFETCHES: 0 DROPPED PREFETCHES: 0
DTLB PREFETCHES SAME FILL-ORIGIN LEVEL: 0 DIFFERENT FILL-ORIGIN LEVEL: 0
DTLB AVERAGE MISS LATENCY: 11.5835 cycles
DTLB RQ	ACCESS:   83680009	FORWARD:          0	MERGED:   15826180	TO_CACHE:   67853829

STLB TOTAL     ACCESS:    8387368  HIT:    8345764  MISS:      41604  HIT %:     99.504  MISS %:   0.496032   MPKI: 0.20802
STLB LOAD TRANSLATION ACCESS:    2976355  HIT:    2934891  MISS:      41464  HIT %:    98.6069  MISS %:    1.39311   MPKI: 0.20732
STLB TRANSLATION FROM L1D PREFETCHER ACCESS:    5411013  HIT:    5410873  MISS:        140  HIT %:    99.9974  MISS %: 0.00258732   MPKI: 0.0007
STLB PREFETCH  REQUESTED:          0  ISSUED:          0  USEFUL:        128  USELESS:         46
STLB USEFUL LOAD PREFETCHES:        128 PREFETCH ISSUED TO LOWER LEVEL:          0  ACCURACY: inf
STLB TIMELY PREFETCHES:        128 LATE PREFETCHES: 8345 DROPPED PREFETCHES: 432409
STLB PREFETCHES SAME FILL-ORIGIN LEVEL: 0 DIFFERENT FILL-ORIGIN LEVEL: 0
STLB AVERAGE MISS LATENCY: 114.873 cycles
STLB RQ	ACCESS:   24151403	FORWARD:          0	MERGED:   14533121	TO_CACHE:    9618282

STLB Hit, L1D data hit: 0
STLB Hit, L2C data hit: 0
STLB Hit, LLC data hit: 0
STLB Hit, LLC data miss: 0
STLB STLB hints to L2: 0
L1D TOTAL     ACCESS:   90623720  HIT:   83660681  MISS:    6963039  HIT %:    92.3165  MISS %:    7.68346   MPKI: 34.8152
L1D LOAD      ACCESS:   53498171  HIT:   48604181  MISS:    4893990  HIT %:     90.852  MISS %:    9.14796   MPKI: 24.47
L1D RFO       ACCESS:   22315649  HIT:   21561600  MISS:     754049  HIT %:     96.621  MISS %:    3.37901   MPKI: 3.77025
L1D PREFETCH  ACCESS:   14809900  HIT:   13494900  MISS:    1315000  HIT %:    91.1208  MISS %:     8.8792   MPKI: 6.575
L1D PREFETCH  REQUESTED:   46544944  ISSUED:   45053713  USEFUL:    1406361  USELESS:       8126
L1D USEFUL LOAD PREFETCHES:    1406361 PREFETCH ISSUED TO LOWER LEVEL:    3752139  ACCURACY: 37.4816
L1D TIMELY PREFETCHES:    1406361 LATE PREFETCHES: 43582 DROPPED PREFETCHES: 1845333
L1D PREFETCHES SAME FILL-ORIGIN LEVEL: 1458081 DIFFERENT FILL-ORIGIN LEVEL: 2294058
L1D AVERAGE MISS LATENCY: 133.737 cycles
L1D RQ	ACCESS:   72514836	FORWARD:          0	MERGED:   12124442	TO_CACHE:   58086878
L1D WQ	ACCESS:   25685179	FORWARD:    2317691	MERGED:      92048	TO_CACHE:   25593131
L1D PQ	ACCESS:   24115568	FORWARD:          0	MERGED:    3163248	TO_CACHE:   20938145

L1D UNIQUE REGIONS ACCESSED: 0
L1D REGIONS CONFLICTS: 0
L1D Cross Page Prefetch Requests: 4097493
L1D Same Page Prefetch Requests: 28460111
L1D ROI Sum of L1D PQ occupancy: 345977620
L1D PREFETCHES PUSHED FROM L2C: 0
L1I TOTAL     ACCESS:   38044984  HIT:   38044982  MISS:          2  HIT %:        100  MISS %: 5.25693e-06   MPKI: 1e-05
L1I LOAD      ACCESS:   38044984  HIT:   38044982  MISS:          2  HIT %:        100  MISS %: 5.25693e-06   MPKI: 1e-05
L1I PREFETCH  REQUESTED:          0  ISSUED:          0  USEFUL:          0  USELESS:          0
L1I USEFUL LOAD PREFETCHES:          0 PREFETCH ISSUED TO LOWER LEVEL:          0  ACCURACY: -nan
L1I TIMELY PREFETCHES:          0 LATE PREFETCHES: 0 DROPPED PREFETCHES: 0
L1I PREFETCHES SAME FILL-ORIGIN LEVEL: 0 DIFFERENT FILL-ORIGIN LEVEL: 0
L1I AVERAGE MISS LATENCY: 212 cycles
L1I RQ	ACCESS:   66861124	FORWARD:          0	MERGED:   25618259	TO_CACHE:   41242865

BTB TOTAL     ACCESS:   47344026  HIT:   44910441  MISS:    2433585  HIT %:    94.8598  MISS %:    5.14022   MPKI: 12.1679
BTB BRANCH_DIRECT_JUMP	ACCESS:    5156339  HIT:    5156336  MISS:          3
BTB BRANCH_INDIRECT	ACCESS:          0  HIT:          0  MISS:          0
BTB BRANCH_CONDITIONAL	ACCESS:   31051998  HIT:   31051992  MISS:          6
BTB BRANCH_DIRECT_CALL	ACCESS:    5267613  HIT:    5267613  MISS:          0
BTB BRANCH_INDIRECT_CALL	ACCESS:     300232  HIT:     300232  MISS:          0
BTB BRANCH_RETURN	ACCESS:    5567844  HIT:    3134268  MISS:    2433576
BTB BRANCH_OTHER ACCESS:          0  HIT:          0  MISS:          0

L2C TOTAL     ACCESS:   10447506  HIT:    6043116  MISS:    4404390  HIT %:    57.8427  MISS %:    42.1573   MPKI: 22.022
L2C LOAD      ACCESS:    4853006  HIT:    2298693  MISS:    2554313  HIT %:    47.3664  MISS %:    52.6336   MPKI: 12.7716
L2C DATA LOAD MPKI: 12.7716
L2C INSTRUCTION LOAD MPKI: 1e-05
L2C RFO       ACCESS:     754041  HIT:     433350  MISS:     320691  HIT %:    57.4703  MISS %:    42.5297   MPKI: 1.60346
L2C PREFETCH  ACCESS:    3346611  HIT:    1847061  MISS:    1499550  HIT %:     55.192  MISS %:     44.808   MPKI: 7.49775
L2C DATA PREFETCH MPKI: 7.49775
L2C INSTRUCTION PREFETCH MPKI: 0
L2C WRITEBACK ACCESS:    1041605  HIT:    1028580  MISS:      13025  HIT %:    98.7495  MISS %:    1.25047   MPKI: 0.065125
L2C LOAD TRANSLATION ACCESS:      41738  HIT:      28002  MISS:      13736  HIT %:    67.0899  MISS %:    32.9101   MPKI: 0.06868
L2C TRANSLATION FROM L1D PREFETCHER ACCESS:     410505  HIT:     407430  MISS:       3075  HIT %:    99.2509  MISS %:   0.749077   MPKI: 0.015375
L2C PREFETCH  REQUESTED:          0  ISSUED:          0  USEFUL:     331201  USELESS:    1284904
L2C USEFUL LOAD PREFETCHES:     331201 PREFETCH ISSUED TO LOWER LEVEL:    1616481  ACCURACY: 20.489
L2C TIMELY PREFETCHES:     331201 LATE PREFETCHES: 4067 DROPPED PREFETCHES: 0
L2C PREFETCHES SAME FILL-ORIGIN LEVEL: 462845 DIFFERENT FILL-ORIGIN LEVEL: 0
L2C AVERAGE MISS LATENCY: 214.578 cycles
L2C RQ	ACCESS:    6569687	FORWARD:          0	MERGED:          0	TO_CACHE:    6569655
L2C WQ	ACCESS:    1132989	FORWARD:         36	MERGED:          0	TO_CACHE:    1132989
L2C PQ	ACCESS:    3752111	FORWARD:          0	MERGED:       2387	TO_CACHE:    3749720

L2C Instructions Evicting Data 2
L2C Translations Evicting Data 18153
L2C Data Evicting Data 4701055
L2C Instructions Evicting Instructions 0
L2C Translations Evicting Instructions 0
L2C Data Evicting Instructions 2
L2C Instructions Evicting Translations 0
L2C Translations Evicting Translations 84
L2C Data Evicting Translations 18117
L2C Dense regions hint from L2: 0
PSCL5 TOTAL     ACCESS:     450632  HIT:     450632  MISS:          0  HIT %:        100  MISS %:          0   MPKI: 0
PSCL5 LOAD TRANSLATION ACCESS:      41462  HIT:      41462  MISS:          0  HIT %:        100  MISS %:          0   MPKI: 0
PSCL5 TRANSLATION FROM L1D PREFETCHER ACCESS:     409170  HIT:     409170  MISS:          0  HIT %:        100  MISS %:          0   MPKI: 0
PSCL5 PREFETCH  REQUESTED:          0  ISSUED:          0  USEFUL:          0  USELESS:          0
PSCL5 USEFUL LOAD PREFETCHES:          0 PREFETCH ISSUED TO LOWER LEVEL:          0  ACCURACY: -nan
PSCL5 TIMELY PREFETCHES:          0 LATE PREFETCHES: 0 DROPPED PREFETCHES: 0
PSCL5 PREFETCHES SAME FILL-ORIGIN LEVEL: 0 DIFFERENT FILL-ORIGIN LEVEL: 0

PSCL4 TOTAL     ACCESS:     450632  HIT:     450632  MISS:          0  HIT %:        100  MISS %:          0   MPKI: 0
PSCL4 LOAD TRANSLATION ACCESS:      41462  HIT:      41462  MISS:          0  HIT %:        100  MISS %:          0   MPKI: 0
PSCL4 TRANSLATION FROM L1D PREFETCHER ACCESS:     409170  HIT:     409170  MISS:          0  HIT %:        100  MISS %:          0   MPKI: 0
PSCL4 PREFETCH  REQUESTED:          0  ISSUED:          0  USEFUL:          0  USELESS:          0
PSCL4 USEFUL LOAD PREFETCHES:          0 PREFETCH ISSUED TO LOWER LEVEL:          0  ACCURACY: -nan
PSCL4 TIMELY PREFETCHES:          0 LATE PREFETCHES: 0 DROPPED PREFETCHES: 0
PSCL4 PREFETCHES SAME FILL-ORIGIN LEVEL: 0 DIFFERENT FILL-ORIGIN LEVEL: 0

PSCL3 TOTAL     ACCESS:     450632  HIT:     450632  MISS:          0  HIT %:        100  MISS %:          0   MPKI: 0
PSCL3 LOAD TRANSLATION ACCESS:      41462  HIT:      41462  MISS:          0  HIT %:        100  MISS %:          0   MPKI: 0
PSCL3 TRANSLATION FROM L1D PREFETCHER ACCESS:     409170  HIT:     409170  MISS:          0  HIT %:        100  MISS %:          0   MPKI: 0
PSCL3 PREFETCH  REQUESTED:          0  ISSUED:          0  USEFUL:          0  USELESS:          0
PSCL3 USEFUL LOAD PREFETCHES:          0 PREFETCH ISSUED TO LOWER LEVEL:          0  ACCURACY: -nan
PSCL3 TIMELY PREFETCHES:          0 LATE PREFETCHES: 0 DROPPED PREFETCHES: 0
PSCL3 PREFETCHES SAME FILL-ORIGIN LEVEL: 0 DIFFERENT FILL-ORIGIN LEVEL: 0

PSCL2 TOTAL     ACCESS:     448437  HIT:     447954  MISS:        483  HIT %:    99.8923  MISS %:   0.107707   MPKI: 0.002415
PSCL2 LOAD TRANSLATION ACCESS:      41464  HIT:      40981  MISS:        483  HIT %:    98.8351  MISS %:    1.16487   MPKI: 0.002415
PSCL2 TRANSLATION FROM L1D PREFETCHER ACCESS:     406973  HIT:     406973  MISS:          0  HIT %:        100  MISS %:          0   MPKI: 0
PSCL2 PREFETCH  REQUESTED:          0  ISSUED:          0  USEFUL:          0  USELESS:          0
PSCL2 USEFUL LOAD PREFETCHES:          0 PREFETCH ISSUED TO LOWER LEVEL:          0  ACCURACY: -nan
PSCL2 TIMELY PREFETCHES:          0 LATE PREFETCHES: 0 DROPPED PREFETCHES: 0
PSCL2 PREFETCHES SAME FILL-ORIGIN LEVEL: 0 DIFFERENT FILL-ORIGIN LEVEL: 0

LLC TOTAL     ACCESS:    4892522  HIT:    2708962  MISS:    2183560  HIT %:    55.3694  MISS %:    44.6306   MPKI: 10.9178
LLC LOAD      ACCESS:    2550430  HIT:    1739949  MISS:     810481  HIT %:    68.2218  MISS %:    31.7782   MPKI: 4.05241
LLC RFO       ACCESS:     320689  HIT:     316670  MISS:       4019  HIT %:    98.7468  MISS %:    1.25324   MPKI: 0.020095
LLC PREFETCH  ACCESS:    1503429  HIT:     148932  MISS:    1354497  HIT %:    9.90615  MISS %:    90.0938   MPKI: 6.77248
LLC WRITEBACK ACCESS:     501163  HIT:     492943  MISS:       8220  HIT %:    98.3598  MISS %:    1.64018   MPKI: 0.0411
LLC LOAD TRANSLATION ACCESS:      13736  HIT:      10303  MISS:       3433  HIT %:    75.0073  MISS %:    24.9927   MPKI: 0.017165
LLC TRANSLATION FROM L1D PREFETCHER ACCESS:       3075  HIT:        165  MISS:       2910  HIT %:    5.36585  MISS %:    94.6341   MPKI: 0.01455
LLC PREFETCH  REQUESTED:          0  ISSUED:          0  USEFUL:     278673  USELESS:    6511141
LLC USEFUL LOAD PREFETCHES:     278673 PREFETCH ISSUED TO LOWER LEVEL:    6784209  ACCURACY: 4.10767
LLC TIMELY PREFETCHES:     278673 LATE PREFETCHES: 0 DROPPED PREFETCHES: 0
LLC PREFETCHES SAME FILL-ORIGIN LEVEL: 0 DIFFERENT FILL-ORIGIN LEVEL: 0
LLC AVERAGE MISS LATENCY: 2127.99 cycles
LLC RQ	ACCESS:   18363830	FORWARD:          0	MERGED:          0	TO_CACHE:   18363822
LLC WQ	ACCESS:    5293295	FORWARD:          8	MERGED:          0	TO_CACHE:    5293295
LLC PQ	ACCESS:    6949412	FORWARD:          0	MERGED:          0	TO_CACHE:    6949412

LLC Dense regions hint to LLC: 0

RAW hits: 3396531
Loads Generated: 70299331
Loads sent to L1D: 66902796
Stores Generated: 23691320
Stores sent to L1D: 23691318
Major fault: 0 Minor fault: 33071
Allocated PAGES: 110444

CPU 1 cumulative IPC: 0.271157 instructions: 200000002 cycles: 737580798
ITLB TOTAL     ACCESS:   43106990  HIT:   43106990  MISS:          0  HIT %:        100  MISS %:          0   MPKI: 0
ITLB LOAD TRANSLATION ACCESS:   43106990  HIT:   43106990  MISS:          0  HIT %:        100  MISS %:          0   MPKI: 0
ITLB PREFETCH  REQUESTED:          0  ISSUED:          0  USEFUL:          0  USELESS:          0
ITLB USEFUL LOAD PREFETCHES:          0 PREFETCH ISSUED TO LOWER LEVEL:          0  ACCURACY: -nan
ITLB TIMELY PREFETCHES:          0 LATE PREFETCHES: 0 DROPPED PREFETCHES: 0
ITLB PREFETCHES SAME FILL-ORIGIN LEVEL: 0 DIFFERENT FILL-ORIGIN LEVEL: 0
ITLB AVERAGE MISS LATENCY: -nan cycles
ITLB RQ	ACCESS:   45651586	FORWARD:          0	MERGED:    2544596	TO_CACHE:   43106990

DTLB TOTAL     ACCESS:   57411021  HIT:   44231146  MISS:   13179875  HIT %:     77.043  MISS %:     22.957   MPKI: 65.8994
DTLB LOAD TRANSLATION ACCESS:   57411021  HIT:   44231146  MISS:   13179875  HIT %:     77.043  MISS %:     22.957   MPKI: 65.8994
DTLB PREFETCH  REQUESTED:          0  ISSUED:          0  USEFUL:          0  USELESS:          0
DTLB USEFUL LOAD PREFETCHES:          0 PREFETCH ISSUED TO LOWER LEVEL:          0  ACCURACY: -nan
DTLB TIMELY PREFETCHES:          0 LATE PREFETCHES: 0 DROPPED PREFETCHES: 0
DTLB PREFETCHES SAME FILL-ORIGIN LEVEL: 0 DIFFERENT FILL-ORIGIN LEVEL: 0
DTLB AVERAGE MISS LATENCY: 12.2948 cycles
DTLB RQ	ACCESS:   61393007	FORWARD:          0	MERGED:    3752298	TO_CACHE:   57640709

STLB TOTAL     ACCESS:   29330160  HIT:   28153689  MISS:    1176471  HIT %:    95.9889  MISS %:    4.01113   MPKI: 5.88235
STLB LOAD TRANSLATION ACCESS:   13179875  HIT:   12004000  MISS:    1175875  HIT %:    91.0783  MISS %:    8.92175   MPKI: 5.87937
STLB TRANSLATION FROM L1D PREFETCHER ACCESS:   16150285  HIT:   16149689  MISS:        596  HIT %:    99.9963  MISS %: 0.00369034   MPKI: 0.00298
STLB PREFETCH  REQUESTED:          0  ISSUED:          0  USEFUL:        592  USELESS:          4
STLB USEFUL LOAD PREFETCHES:        592 PREFETCH ISSUED TO LOWER LEVEL:          0  ACCURACY: inf
STLB TIMELY PREFETCHES:        592 LATE PREFETCHES: 2074 DROPPED PREFETCHES: 2086953
STLB PREFETCHES SAME FILL-ORIGIN LEVEL: 0 DIFFERENT FILL-ORIGIN LEVEL: 0
STLB AVERAGE MISS LATENCY: 32.9238 cycles
STLB RQ	ACCESS:  114180752	FORWARD:          0	MERGED:   82682227	TO_CACHE:   31498525

STLB Hit, L1D data hit: 0
STLB Hit, L2C data hit: 0
STLB Hit, LLC data hit: 0
STLB Hit, LLC data miss: 0
STLB STLB hints to L2: 0
L1D TOTAL     ACCESS:  136220941  HIT:  121175543  MISS:   15045398  HIT %:    88.9552  MISS %:    11.0448   MPKI: 75.227
L1D LOAD      ACCESS:   59301224  HIT:   46006545  MISS:   13294679  HIT %:    77.5811  MISS %:    22.4189   MPKI: 66.4734
L1D RFO       ACCESS:    1817706  HIT:    1817706  MISS:          0  HIT %:        100  MISS %:          0   MPKI: 0
L1D PREFETCH  ACCESS:   75102011  HIT:   73351292  MISS:    1750719  HIT %:    97.6689  MISS %:    2.33112   MPKI: 8.75359
L1D PREFETCH  REQUESTED:  241296370  ISSUED:  239489214  USEFUL:    1737432  USELESS:      13305
L1D USEFUL LOAD PREFETCHES:    1737432 PREFETCH ISSUED TO LOWER LEVEL:   19165447  ACCURACY: 9.06544
L1D TIMELY PREFETCHES:    1737432 LATE PREFETCHES: 9334 DROPPED PREFETCHES: 6068007
L1D PREFETCHES SAME FILL-ORIGIN LEVEL: 1760055 DIFFERENT FILL-ORIGIN LEVEL: 17405392
L1D AVERAGE MISS LATENCY: 138.227 cycles
L1D RQ	ACCESS:   80661813	FORWARD:          0	MERGED:   21070518	TO_CACHE:   59575301
L1D WQ	ACCESS:    1817708	FORWARD:      15994	MERGED:          2	TO_CACHE:    1817706
L1D PQ	ACCESS:  138488337	FORWARD:          0	MERGED:   37487460	TO_CACHE:  101000877

L1D UNIQUE REGIONS ACCESSED: 0
L1D REGIONS CONFLICTS: 0
L1D Cross Page Prefetch Requests: 13907120
L1D Same Page Prefetch Requests: 165684232
L1D ROI Sum of L1D PQ occupancy: 1526197804
L1D PREFETCHES PUSHED FROM L2C: 0
L1I TOTAL     ACCESS:   45651586  HIT:   45651586  MISS:          0  HIT %:        100  MISS %:          0   MPKI: 0
L1I LOAD      ACCESS:   45651586  HIT:   45651586  MISS:          0  HIT %:        100  MISS %:          0   MPKI: 0
L1I PREFETCH  REQUESTED:          0  ISSUED:          0  USEFUL:          0  USELESS:          0
L1I USEFUL LOAD PREFETCHES:          0 PREFETCH ISSUED TO LOWER LEVEL:          0  ACCURACY: -nan
L1I TIMELY PREFETCHES:          0 LATE PREFETCHES: 0 DROPPED PREFETCHES: 0
L1I PREFETCHES SAME FILL-ORIGIN LEVEL: 0 DIFFERENT FILL-ORIGIN LEVEL: 0
L1I AVERAGE MISS LATENCY: -nan cycles
L1I RQ	ACCESS:   72919355	FORWARD:          0	MERGED:   27267769	TO_CACHE:   45651586

BTB TOTAL     ACCESS:   36529344  HIT:   36529343  MISS:          1  HIT %:        100  MISS %: 2.73753e-06   MPKI: 5e-06
BTB BRANCH_DIRECT_JUMP	ACCESS:          0  HIT:          0  MISS:          0
BTB BRANCH_INDIRECT	ACCESS:          0  HIT:          0  MISS:          0
BTB BRANCH_CONDITIONAL	ACCESS:   36529344  HIT:   36529343  MISS:          1
BTB BRANCH_DIRECT_CALL	ACCESS:          0  HIT:          0  MISS:          0
BTB BRANCH_INDIRECT_CALL	ACCESS:          0  HIT:          0  MISS:          0
BTB BRANCH_RETURN	ACCESS:          0  HIT:          0  MISS:          0
BTB BRANCH_OTHER ACCESS:          0  HIT:          0  MISS:          0

L2C TOTAL     ACCESS:   34930777  HIT:   22596034  MISS:   12334743  HIT %:     64.688  MISS %:     35.312   MPKI: 61.6737
[...]
L2C TIMELY PREFETCHES:       2971 LATE PREFETCHES: 0 DROPPED PREFETCHES: 0
L2C PREFETCHES SAME FILL-ORIGIN LEVEL: 166384 DIFFERENT FILL-ORIGIN LEVEL: 0
L2C AVERAGE MISS LATENCY: 1236.21 cycles
L2C RQ	ACCESS:    2520853	FORWARD:          0	MERGED:          0	TO_CACHE:    2520853
L2C WQ	ACCESS:    1515965	FORWARD:          0	MERGED:          0	TO_CACHE:    1515965
L2C PQ	ACCESS:    5328701	FORWARD:          0	MERGED:        299	TO_CACHE:    5328402

L2C Instructions Evicting Data 0
L2C Translations Evicting Data 5956
L2C Data Evicting Data 3026250
L2C Instructions Evicting Instructions 0
L2C Translations Evicting Instructions 0
L2C Data Evicting Instructions 0
L2C Instructions Evicting Translations 0
L2C Translations Evicting Translations 0
L2C Data Evicting Translations 5712
L2C Dense regions hint from L2: 0
PSCL5 TOTAL     ACCESS:     965943  HIT:     965943  MISS:          0  HIT %:        100  MISS %:          0   MPKI: 0
PSCL5 LOAD TRANSLATION ACCESS:      10972  HIT:      10972  MISS:          0  HIT %:        100  MISS %:          0   MPKI: 0
PSCL5 TRANSLATION FROM L1D PREFETCHER ACCESS:     954971  HIT:     954971  MISS:          0  HIT %:        100  MISS %:          0   MPKI: 0
PSCL5 PREFETCH  REQUESTED:          0  ISSUED:          0  USEFUL:          0  USELESS:          0
PSCL5 USEFUL LOAD PREFETCHES:          0 PREFETCH ISSUED TO LOWER LEVEL:          0  ACCURACY: -nan
PSCL5 TIMELY PREFETCHES:          0 LATE PREFETCHES: 0 DROPPED PREFETCHES: 0
PSCL5 PREFETCHES SAME FILL-ORIGIN LEVEL: 0 DIFFERENT FILL-ORIGIN LEVEL: 0

PSCL4 TOTAL     ACCESS:     965943  HIT:     965943  MISS:          0  HIT %:        100  MISS %:          0   MPKI: 0
PSCL4 LOAD TRANSLATION ACCESS:      10972  HIT:      10972  MISS:          0  HIT %:        100  MISS %:          0   MPKI: 0
PSCL4 TRANSLATION FROM L1D PREFETCHER ACCESS:     954971  HIT:     954971  MISS:          0  HIT %:        100  MISS %:          0   MPKI: 0
PSCL4 PREFETCH  REQUESTED:          0  ISSUED:          0  USEFUL:          0  USELESS:          0
PSCL4 USEFUL LOAD PREFETCHES:          0 PREFETCH ISSUED TO LOWER LEVEL:          0  ACCURACY: -nan
PSCL4 TIMELY PREFETCHES:          0 LATE PREFETCHES: 0 DROPPED PREFETCHES: 0
PSCL4 PREFETCHES SAME FILL-ORIGIN LEVEL: 0 DIFFERENT FILL-ORIGIN LEVEL: 0

PSCL3 TOTAL     ACCESS:     965943  HIT:     965943  MISS:          0  HIT %:        100  MISS %:          0   MPKI: 0
PSCL3 LOAD TRANSLATION ACCESS:      10972  HIT:      10972  MISS:          0  HIT %:        100  MISS %:          0   MPKI: 0
PSCL3 TRANSLATION FROM L1D PREFETCHER ACCESS:     954971  HIT:     954971  MISS:          0  HIT %:        100  MISS %:          0   MPKI: 0
PSCL3 PREFETCH  REQUESTED:          0  ISSUED:          0  USEFUL:          0  USELESS:          0
PSCL3 USEFUL LOAD PREFETCHES:          0 PREFETCH ISSUED TO LOWER LEVEL:          0  ACCURACY: -nan
PSCL3 TIMELY PREFETCHES:          0 LATE PREFETCHES: 0 DROPPED PREFETCHES: 0
PSCL3 PREFETCHES SAME FILL-ORIGIN LEVEL: 0 DIFFERENT FILL-ORIGIN LEVEL: 0

PSCL2 TOTAL     ACCESS:     963972  HIT:     963951  MISS:         21  HIT %:    99.9978  MISS %: 0.00217849   MPKI: 0.000105
PSCL2 LOAD TRANSLATION ACCESS:      10972  HIT:      10951  MISS:         21  HIT %:    99.8086  MISS %:   0.191396   MPKI: 0.000105
PSCL2 TRANSLATION FROM L1D PREFETCHER ACCESS:     953000  HIT:     953000  MISS:          0  HIT %:        100  MISS %:          0   MPKI: 0
PSCL2 PREFETCH  REQUESTED:          0  ISSUED:          0  USEFUL:          0  USELESS:          0
PSCL2 USEFUL LOAD PREFETCHES:          0 PREFETCH ISSUED TO LOWER LEVEL:          0  ACCURACY: -nan
PSCL2 TIMELY PREFETCHES:          0 LATE PREFETCHES: 0 DROPPED PREFETCHES: 0
PSCL2 PREFETCHES SAME FILL-ORIGIN LEVEL: 0 DIFFERENT FILL-ORIGIN LEVEL: 0

LLC TOTAL     ACCESS:    1074221  HIT:     273560  MISS:     800661  HIT %:    25.4659  MISS %:    74.5341   MPKI: 4.00331
LLC LOAD      ACCESS:       2739  HIT:          0  MISS:       2739  HIT %:          0  MISS %:        100   MPKI: 0.013695
LLC RFO       ACCESS:     357651  HIT:          0  MISS:     357651  HIT %:          0  MISS %:        100   MPKI: 1.78825
LLC PREFETCH  ACCESS:     354927  HIT:          0  MISS:     354927  HIT %:          0  MISS %:        100   MPKI: 1.77463
LLC WRITEBACK ACCESS:     357481  HIT:     273558  MISS:      83923  HIT %:    76.5238  MISS %:    23.4762   MPKI: 0.419615
LLC LOAD TRANSLATION ACCESS:        713  HIT:          2  MISS:        711  HIT %:   0.280505  MISS %:    99.7195   MPKI: 0.003555
LLC TRANSLATION FROM L1D PREFETCHER ACCESS:        710  HIT:          0  MISS:        710  HIT %:          0  MISS %:        100   MPKI: 0.00355
LLC PREFETCH  REQUESTED:          0  ISSUED:          0  USEFUL:     278673  USELESS:    6511141
LLC USEFUL LOAD PREFETCHES:     278673 PREFETCH ISSUED TO LOWER LEVEL:    6784209  ACCURACY: 4.10767
LLC TIMELY PREFETCHES:     278673 LATE PREFETCHES: 0 DROPPED PREFETCHES: 0
LLC PREFETCHES SAME FILL-ORIGIN LEVEL: 0 DIFFERENT FILL-ORIGIN LEVEL: 0
LLC AVERAGE MISS LATENCY: 5803.45 cycles
LLC RQ	ACCESS:   18363830	FORWARD:          0	MERGED:          0	TO_CACHE:   18363822
LLC WQ	ACCESS:    5293295	FORWARD:          8	MERGED:          0	TO_CACHE:    5293295
LLC PQ	ACCESS:    6949412	FORWARD:          0	MERGED:          0	TO_CACHE:    6949412

LLC Dense regions hint to LLC: 0

RAW hits: 0
Loads Generated: 42775896
Loads sent to L1D: 42775894
Stores Generated: 22889644
Stores sent to L1D: 22889643
Major fault: 0 Minor fault: 14010
Allocated PAGES: 110444

CPU 3 cumulative IPC: 0.923332 instructions: 200000000 cycles: 216606838
ITLB TOTAL     ACCESS:   31902456  HIT:   31902456  MISS:          0  HIT %:        100  MISS %:          0   MPKI: 0
ITLB LOAD TRANSLATION ACCESS:   31902456  HIT:   31902456  MISS:          0  HIT %:        100  MISS %:          0   MPKI: 0
ITLB PREFETCH  REQUESTED:          0  ISSUED:          0  USEFUL:          0  USELESS:          0
ITLB USEFUL LOAD PREFETCHES:          0 PREFETCH ISSUED TO LOWER LEVEL:          0  ACCURACY: -nan
ITLB TIMELY PREFETCHES:          0 LATE PREFETCHES: 0 DROPPED PREFETCHES: 0
ITLB PREFETCHES SAME FILL-ORIGIN LEVEL: 0 DIFFERENT FILL-ORIGIN LEVEL: 0
ITLB AVERAGE MISS LATENCY: -nan cycles
ITLB RQ	ACCESS:  114559625	FORWARD:          0	MERGED:      64625	TO_CACHE:  114495000

DTLB TOTAL     ACCESS:   23291608  HIT:   23268049  MISS:      23559  HIT %:    99.8989  MISS %:   0.101148   MPKI: 0.117795
DTLB LOAD TRANSLATION ACCESS:   23291608  HIT:   23268049  MISS:      23559  HIT %:    99.8989  MISS %:   0.101148   MPKI: 0.117795
DTLB PREFETCH  REQUESTED:          0  ISSUED:          0  USEFUL:          0  USELESS:          0
DTLB USEFUL LOAD PREFETCHES:          0 PREFETCH ISSUED TO LOWER LEVEL:          0  ACCURACY: -nan
DTLB TIMELY PREFETCHES:          0 LATE PREFETCHES: 0 DROPPED PREFETCHES: 0
DTLB PREFETCHES SAME FILL-ORIGIN LEVEL: 0 DIFFERENT FILL-ORIGIN LEVEL: 0
DTLB AVERAGE MISS LATENCY: 256.729 cycles
DTLB RQ	ACCESS:   82848090	FORWARD:          0	MERGED:     923445	TO_CACHE:   81924645

STLB TOTAL     ACCESS:   11201140  HIT:   11177581  MISS:      23559  HIT %:    99.7897  MISS %:   0.210327   MPKI: 0.117795
STLB LOAD TRANSLATION ACCESS:      23559  HIT:          0  MISS:      23559  HIT %:          0  MISS %:        100   MPKI: 0.117795
STLB TRANSLATION FROM L1D PREFETCHER ACCESS:   11177581  HIT:   11177581  MISS:          0  HIT %:        100  MISS %:          0   MPKI: 0
STLB PREFETCH  REQUESTED:          0  ISSUED:          0  USEFUL:      23286  USELESS:          0
STLB USEFUL LOAD PREFETCHES:      23286 PREFETCH ISSUED TO LOWER LEVEL:          0  ACCURACY: inf
STLB TIMELY PREFETCHES:      23286 LATE PREFETCHES: 1147 DROPPED PREFETCHES: 1232850
STLB PREFETCHES SAME FILL-ORIGIN LEVEL: 0 DIFFERENT FILL-ORIGIN LEVEL: 0
STLB AVERAGE MISS LATENCY: 289.694 cycles
STLB RQ	ACCESS:  274891688	FORWARD:          0	MERGED:  227798315	TO_CACHE:   47093373

STLB Hit, L1D data hit: 0
STLB Hit, L2C data hit: 0
STLB Hit, LLC data hit: 0
STLB Hit, LLC data miss: 0
STLB STLB hints to L2: 0
L1D TOTAL     ACCESS:   80861276  HIT:   79353585  MISS:    1507691  HIT %:    98.1355  MISS %:    1.86454   MPKI: 7.53845
L1D LOAD      ACCESS:   16075220  HIT:   16063565  MISS:      11655  HIT %:    99.9275  MISS %:  0.0725029   MPKI: 0.058275
L1D RFO       ACCESS:    1753205  HIT:     825374  MISS:     927831  HIT %:     47.078  MISS %:     52.922   MPKI: 4.63915
L1D PREFETCH  ACCESS:   63032851  HIT:   62464646  MISS:     568205  HIT %:    99.0986  MISS %:   0.901443   MPKI: 2.84103
L1D PREFETCH  REQUESTED:  727043394  ISSUED:  727036478  USEFUL:    2058527  USELESS:         47
L1D USEFUL LOAD PREFETCHES:    2058527 PREFETCH ISSUED TO LOWER LEVEL:    6365351  ACCURACY: 32.3396
L1D TIMELY PREFETCHES:    2058527 LATE PREFETCHES: 5676 DROPPED PREFETCHES: 3526835
L1D PREFETCHES SAME FILL-ORIGIN LEVEL: 2064261 DIFFERENT FILL-ORIGIN LEVEL: 4301090
L1D AVERAGE MISS LATENCY: 1007.96 cycles
L1D RQ	ACCESS:  132541631	FORWARD:          0	MERGED:   74642737	TO_CACHE:   57898894
L1D WQ	ACCESS:   24949196	FORWARD:          0	MERGED:          0	TO_CACHE:   24949196
L1D PQ	ACCESS:  452225965	FORWARD:          0	MERGED:  177415452	TO_CACHE:  274810513

L1D UNIQUE REGIONS ACCESSED: 0
L1D REGIONS CONFLICTS: 0
L1D Cross Page Prefetch Requests: 44227274
L1D Same Page Prefetch Requests: 477418199
L1D ROI Sum of L1D PQ occupancy: 3310236275
L1D PREFETCHES PUSHED FROM L2C: 0
L1I TOTAL     ACCESS:   31920506  HIT:   31920506  MISS:          0  HIT %:        100  MISS %:          0   MPKI: 0
L1I LOAD      ACCESS:   31920506  HIT:   31920506  MISS:          0  HIT %:        100  MISS %:          0   MPKI: 0
L1I PREFETCH  REQUESTED:          0  ISSUED:          0  USEFUL:          0  USELESS:          0
L1I USEFUL LOAD PREFETCHES:          0 PREFETCH ISSUED TO LOWER LEVEL:          0  ACCURACY: -nan
L1I TIMELY PREFETCHES:          0 LATE PREFETCHES: 0 DROPPED PREFETCHES: 0
L1I PREFETCHES SAME FILL-ORIGIN LEVEL: 0 DIFFERENT FILL-ORIGIN LEVEL: 0
L1I AVERAGE MISS LATENCY: -nan cycles
L1I RQ	ACCESS:  320814320	FORWARD:          0	MERGED:  206254695	TO_CACHE:  114559625

BTB TOTAL     ACCESS:   73949825  HIT:   73949822  MISS:          3  HIT %:        100  MISS %: 4.0568e-06   MPKI: 1.5e-05
BTB BRANCH_DIRECT_JUMP	ACCESS:          0  HIT:          0  MISS:          0
BTB BRANCH_INDIRECT	ACCESS:          0  HIT:          0  MISS:          0
BTB BRANCH_CONDITIONAL	ACCESS:   73949825  HIT:   73949822  MISS:          3
BTB BRANCH_DIRECT_CALL	ACCESS:          0  HIT:          0  MISS:          0
BTB BRANCH_INDIRECT_CALL	ACCESS:          0  HIT:          0  MISS:          0
BTB BRANCH_RETURN	ACCESS:          0  HIT:          0  MISS:          0
BTB BRANCH_OTHER ACCESS:          0  HIT:          0  MISS:          0

L2C TOTAL     ACCESS:    4709201  HIT:    3132581  MISS:    1576620  HIT %:    66.5204  MISS %:    33.4796   MPKI: 7.8831
L2C LOAD      ACCESS:       5987  HIT:          0  MISS:       5987  HIT %:          0  MISS %:        100   MPKI: 0.029935
L2C DATA LOAD MPKI: 0.029935
L2C INSTRUCTION LOAD MPKI: 0
L2C RFO       ACCESS:     927831  HIT:          0  MISS:     927831  HIT %:          0  MISS %:        100   MPKI: 4.63915
L2C PREFETCH  ACCESS:    1590184  HIT:    1016312  MISS:     573872  HIT %:    63.9116  MISS %:    36.0884   MPKI: 2.86936
L2C DATA PREFETCH MPKI: 2.86936
L2C INSTRUCTION PREFETCH MPKI: 0
L2C WRITEBACK ACCESS:     927641  HIT:     861739  MISS:      65902  HIT %:    92.8957  MISS %:    7.10426   MPKI: 0.32951
L2C LOAD TRANSLATION ACCESS:      23561  HIT:      21679  MISS:       1882  HIT %:    92.0122  MISS %:    7.98778   MPKI: 0.00941
L2C TRANSLATION FROM L1D PREFETCHER ACCESS:    1233997  HIT:    1232851  MISS:       1146  HIT %:    99.9071  MISS %:  0.0928689   MPKI: 0.00573
L2C PREFETCH  REQUESTED:          0  ISSUED:          0  USEFUL:       4056  USELESS:    2064430
L2C USEFUL LOAD PREFETCHES:       4056 PREFETCH ISSUED TO LOWER LEVEL:    2064260  ACCURACY: 0.196487
L2C TIMELY PREFETCHES:       4056 LATE PREFETCHES: 0 DROPPED PREFETCHES: 0
L2C PREFETCHES SAME FILL-ORIGIN LEVEL: 230935 DIFFERENT FILL-ORIGIN LEVEL: 0
L2C AVERAGE MISS LATENCY: 962.999 cycles
L2C RQ	ACCESS:    4445759	FORWARD:          0	MERGED:          0	TO_CACHE:    4445759
L2C WQ	ACCESS:    3118649	FORWARD:          0	MERGED:          0	TO_CACHE:    3118649
L2C PQ	ACCESS:    6365351	FORWARD:          0	MERGED:       1626	TO_CACHE:    6363725

L2C Instructions Evicting Data 0
L2C Translations Evicting Data 10408
L2C Data Evicting Data 5184732
L2C Instructions Evicting Instructions 0
L2C Translations Evicting Instructions 0
L2C Data Evicting Instructions 0
L2C Instructions Evicting Translations 0
L2C Translations Evicting Translations 36
L2C Data Evicting Translations 9988
L2C Dense regions hint from L2: 0
PSCL5 TOTAL     ACCESS:    1257556  HIT:    1257556  MISS:          0  HIT %:        100  MISS %:          0   MPKI: 0
PSCL5 LOAD TRANSLATION ACCESS:      23559  HIT:      23559  MISS:          0  HIT %:        100  MISS %:          0   MPKI: 0
PSCL5 TRANSLATION FROM L1D PREFETCHER ACCESS:    1233997  HIT:    1233997  MISS:          0  HIT %:        100  MISS %:          0   MPKI: 0
PSCL5 PREFETCH  REQUESTED:          0  ISSUED:          0  USEFUL:          0  USELESS:          0
PSCL5 USEFUL LOAD PREFETCHES:          0 PREFETCH ISSUED TO LOWER LEVEL:          0  ACCURACY: -nan
PSCL5 TIMELY PREFETCHES:          0 LATE PREFETCHES: 0 DROPPED PREFETCHES: 0
PSCL5 PREFETCHES SAME FILL-ORIGIN LEVEL: 0 DIFFERENT FILL-ORIGIN LEVEL: 0

PSCL4 TOTAL     ACCESS:    1257556  HIT:    1257556  MISS:          0  HIT %:        100  MISS %:          0   MPKI: 0
PSCL4 LOAD TRANSLATION ACCESS:      23559  HIT:      23559  MISS:          0  HIT %:        100  MISS %:          0   MPKI: 0
PSCL4 TRANSLATION FROM L1D PREFETCHER ACCESS:    1233997  HIT:    1233997  MISS:          0  HIT %:        100  MISS %:          0   MPKI: 0
PSCL4 PREFETCH  REQUESTED:          0  ISSUED:          0  USEFUL:          0  USELESS:          0
PSCL4 USEFUL LOAD PREFETCHES:          0 PREFETCH ISSUED TO LOWER LEVEL:          0  ACCURACY: -nan
PSCL4 TIMELY PREFETCHES:          0 LATE PREFETCHES: 0 DROPPED PREFETCHES: 0
PSCL4 PREFETCHES SAME FILL-ORIGIN LEVEL: 0 DIFFERENT FILL-ORIGIN LEVEL: 0

PSCL3 TOTAL     ACCESS:    1257556  HIT:    1257556  MISS:          0  HIT %:        100  MISS %:          0   MPKI: 0
PSCL3 LOAD TRANSLATION ACCESS:      23559  HIT:      23559  MISS:          0  HIT %:        100  MISS %:          0   MPKI: 0
PSCL3 TRANSLATION FROM L1D PREFETCHER ACCESS:    1233997  HIT:    1233997  MISS:          0  HIT %:        100  MISS %:          0   MPKI: 0
PSCL3 PREFETCH  REQUESTED:          0  ISSUED:          0  USEFUL:          0  USELESS:          0
PSCL3 USEFUL LOAD PREFETCHES:          0 PREFETCH ISSUED TO LOWER LEVEL:          0  ACCURACY: -nan
PSCL3 TIMELY PREFETCHES:          0 LATE PREFETCHES: 0 DROPPED PREFETCHES: 0
PSCL3 PREFETCHES SAME FILL-ORIGIN LEVEL: 0 DIFFERENT FILL-ORIGIN LEVEL: 0

PSCL2 TOTAL     ACCESS:    1255130  HIT:    1255082  MISS:         48  HIT %:    99.9962  MISS %: 0.00382431   MPKI: 0.00024
PSCL2 LOAD TRANSLATION ACCESS:      23559  HIT:      23511  MISS:         48  HIT %:    99.7963  MISS %:   0.203744   MPKI: 0.00024
PSCL2 TRANSLATION FROM L1D PREFETCHER ACCESS:    1231571  HIT:    1231571  MISS:          0  HIT %:        100  MISS %:          0   MPKI: 0
PSCL2 PREFETCH  REQUESTED:          0  ISSUED:          0  USEFUL:          0  USELESS:          0
PSCL2 USEFUL LOAD PREFETCHES:          0 PREFETCH ISSUED TO LOWER LEVEL:          0  ACCURACY: -nan
PSCL2 TIMELY PREFETCHES:          0 LATE PREFETCHES: 0 DROPPED PREFETCHES: 0
PSCL2 PREFETCHES SAME FILL-ORIGIN LEVEL: 0 DIFFERENT FILL-ORIGIN LEVEL: 0

LLC TOTAL     ACCESS:    2436415  HIT:     857104  MISS:    1579311  HIT %:    35.1789  MISS %:    64.8211   MPKI: 7.89656
LLC LOAD      ACCESS:       5987  HIT:          0  MISS:       5987  HIT %:          0  MISS %:        100   MPKI: 0.029935
LLC RFO       ACCESS:     927831  HIT:          0  MISS:     927831  HIT %:          0  MISS %:        100   MPKI: 4.63915
LLC PREFETCH  ACCESS:     573873  HIT:          0  MISS:     573873  HIT %:          0  MISS %:        100   MPKI: 2.86937
LLC WRITEBACK ACCESS:     925696  HIT:     857095  MISS:      68601  HIT %:    92.5893  MISS %:    7.41075   MPKI: 0.343005
LLC LOAD TRANSLATION ACCESS:       1882  HIT:          9  MISS:       1873  HIT %:   0.478215  MISS %:    99.5218   MPKI: 0.009365
LLC TRANSLATION FROM L1D PREFETCHER ACCESS:       1146  HIT:          0  MISS:       1146  HIT %:          0  MISS %:        100   MPKI: 0.00573
LLC PREFETCH  REQUESTED:          0  ISSUED:          0  USEFUL:     278673  USELESS:    6511141
LLC USEFUL LOAD PREFETCHES:     278673 PREFETCH ISSUED TO LOWER LEVEL:    6784209  ACCURACY: 4.10767
LLC TIMELY PREFETCHES:     278673 LATE PREFETCHES: 0 DROPPED PREFETCHES: 0
LLC PREFETCHES SAME FILL-ORIGIN LEVEL: 0 DIFFERENT FILL-ORIGIN LEVEL: 0
LLC AVERAGE MISS LATENCY: 2942.17 cycles
LLC RQ	ACCESS:   18363830	FORWARD:          0	MERGED:          0	TO_CACHE:   18363822
LLC WQ	ACCESS:    5293295	FORWARD:          8	MERGED:          0	TO_CACHE:    5293295
LLC PQ	ACCESS:    6949412	FORWARD:          0	MERGED:          0	TO_CACHE:    6949412

LLC Dense regions hint to LLC: 0

RAW hits: 0
Loads Generated: 37020085
Loads sent to L1D: 37020085
Stores Generated: 7422649
Stores sent to L1D: 7422652
Major fault: 0 Minor fault: 28281
Allocated PAGES: 110444

DRAM Statistics
 CHANNEL 0
 RQ ROW_BUFFER_HIT:    2081556  ROW_BUFFER_MISS:   13864124
 DBUS_CONGESTED:        663
 WQ ROW_BUFFER_HIT:     416236  ROW_BUFFER_MISS:    4368191  FULL:          0

 AVG_CONGESTED_CYCLE: 5
 All warmup complete: 5
Channel 0 Bank busy for read cycles: 0
Channel 0 Bank busy for write cycles: 0
Channel 0
Rank 0
0banks busy for read cycles: 443075
0banks busy for write cycles: 0
1banks busy for read cycles: 51495775
1banks busy for write cycles: 685241
2banks busy for read cycles: 112598612
2banks busy for write cycles: 684529
3banks busy for read cycles: 131774846
3banks busy for write cycles: 684041
4banks busy for read cycles: 110635691
4banks busy for write cycles: 683565
5banks busy for read cycles: 81005098
5banks busy for write cycles: 698509
6banks busy for read cycles: 55570764
6banks busy for write cycles: 1378255
7banks busy for read cycles: 34481800
7banks busy for write cycles: 15329087
8banks busy for read cycles: 22280040
8banks busy for write cycles: 117151871

CPU 0 Branch Prediction Accuracy: 92.9291% MPKI: 17.1133 Average ROB Occupancy at Mispredict: 22.1552
Branch types
NOT_BRANCH: 163118868 75.2645%
BRANCH_DIRECT_JUMP: 5585019 2.57698%
BRANCH_INDIRECT: 0 0%
BRANCH_CONDITIONAL: 35946683 16.5861%
BRANCH_DIRECT_CALL: 5713023 2.63604%
BRANCH_INDIRECT_CALL: 325414 0.150149%
BRANCH_RETURN: 6038438 2.78619%
BRANCH_OTHER: 0 0%


CPU 1 Branch Prediction Accuracy: 96.515% MPKI: 8.86362 Average ROB Occupancy at Mispredict: 59.0543
Branch types
NOT_BRANCH: 147933009 73.9665%
BRANCH_DIRECT_JUMP: 0 0%
BRANCH_INDIRECT: 0 0%
BRANCH_CONDITIONAL: 52067005 26.0335%
BRANCH_DIRECT_CALL: 0 0%
BRANCH_INDIRECT_CALL: 0 0%
BRANCH_RETURN: 0 0%
BRANCH_OTHER: 0 0%


CPU 2 Branch Prediction Accuracy: 99.4284% MPKI: 1.29721 Average ROB Occupancy at Mispredict: 31.8911
Branch types
NOT_BRANCH: 653608255 77.1081%
BRANCH_DIRECT_JUMP: 0 0%
BRANCH_INDIRECT: 0 0%
BRANCH_CONDITIONAL: 194043493 22.8919%
BRANCH_DIRECT_CALL: 0 0%
BRANCH_INDIRECT_CALL: 0 0%
BRANCH_RETURN: 0 0%
BRANCH_OTHER: 0 0%


CPU 3 Branch Prediction Accuracy: 97.9717% MPKI: 7.53737 Average ROB Occupancy at Mispredict: 12.7542
Branch types
NOT_BRANCH: 447910899 62.8382%
BRANCH_DIRECT_JUMP: 0 0%
BRANCH_INDIRECT: 0 0%
BRANCH_CONDITIONAL: 264889304 37.1618%
BRANCH_DIRECT_CALL: 0 0%
BRANCH_INDIRECT_CALL: 0 0%
BRANCH_RETURN: 0 0%
BRANCH_OTHER: 0 0%

DRAM PAGES: 1048576
Allocated PAGES: 110444
