
*** ChampSim Multicore Out-of-Order Simulator ***

Warmup Instructions: 50000000
Simulation Instructions: 200000000
Number of CPUs: 4
LLC sets: 8192
LLC ways: 16
Off-chip DRAM Size: 4096 MB Channels: 1 Width: 64-bit Data Rate: 6400 MT/s
CPU 0 runs ./traces/ligra/ligra_PageRankDelta.com-lj.ungraph.gcc_6.3.0_O3.drop_3500M.length_250M.champsimtrace.xz
.xz
CPU 1 runs ./traces/ligra/ligra_PageRankDelta.com-lj.ungraph.gcc_6.3.0_O3.drop_3500M.length_250M.champsimtrace.xz
.xz
CPU 2 runs ./traces/ligra/ligra_PageRank.com-lj.ungraph.gcc_6.3.0_O3.drop_79500M.length_250M.champsimtrace.xz
.xz
CPU 3 runs ./traces/spec/621.wrf_s-6673B.champsimtrace.xz
.xz
BTB has LRU replacement policy
ITLB has LRU replacement policy
DTLB has LRU replacement policy
STLB has LRU replacement policy
L1I has LRU replacement policy
History Sets: 8
History Ways: 16
BERTI Size: 16
BERTI Stride Size: 8
L1D has LRU replacement policy
Initialize SRRIP state for L2C
Initialize DRRIP state for LLC
BTB has LRU replacement policy
ITLB has LRU replacement policy
DTLB has LRU replacement policy
STLB has LRU replacement policy
L1I has LRU replacement policy
History Sets: 8
History Ways: 16
BERTI Size: 16
BERTI Stride Size: 8
L1D has LRU replacement policy
Initialize SRRIP state for L2C
Initialize DRRIP state for LLC
BTB has LRU replacement policy
ITLB has LRU replacement policy
DTLB has LRU replacement policy
STLB has LRU replacement policy
L1I has LRU replacement policy
History Sets: 8
History Ways: 16
BERTI Size: 16
BERTI Stride Size: 8
L1D has LRU replacement policy
Initialize SRRIP state for L2C
Initialize DRRIP state for LLC
BTB has LRU replacement policy
ITLB has LRU replacement policy
DTLB has LRU replacement policy
STLB has LRU replacement policy
L1I has LRU replacement policy
History Sets: 8
History Ways: 16
BERTI Size: 16
BERTI Stride Size: 8
L1D has LRU replacement policy
Initialize SRRIP state for L2C
Initialize DRRIP state for LLC
Heartbeat CPU 2 instructions: 10000002 cycles: 3220492 heartbeat IPC: 3.10512 cumulative IPC: 3.10512 (Simulation time: 0 hr 7 min 0 sec) 
Heartbeat CPU 0 instructions: 10000000 cycles: 3333344 heartbeat IPC: 2.99999 cumulative IPC: 2.99999 (Simulation time: 0 hr 7 min 13 sec) 
Heartbeat CPU 1 instructions: 10000000 cycles: 3333345 heartbeat IPC: 2.99999 cumulative IPC: 2.99999 (Simulation time: 0 hr 7 min 13 sec) 
Heartbeat CPU 3 instructions: 10000002 cycles: 3558765 heartbeat IPC: 2.80996 cumulative IPC: 2.80996 (Simulation time: 0 hr 7 min 40 sec) 
Heartbeat CPU 2 instructions: 20000001 cycles: 6437224 heartbeat IPC: 3.10874 cumulative IPC: 3.10693 (Simulation time: 0 hr 12 min 49 sec) 
Heartbeat CPU 3 instructions: 20000003 cycles: 6463366 heartbeat IPC: 3.44281 cumulative IPC: 3.09436 (Simulation time: 0 hr 12 min 52 sec) 
Heartbeat CPU 0 instructions: 20000002 cycles: 6666678 heartbeat IPC: 3 cumulative IPC: 3 (Simulation time: 0 hr 13 min 13 sec) 
Heartbeat CPU 1 instructions: 20000002 cycles: 6666679 heartbeat IPC: 3 cumulative IPC: 2.99999 (Simulation time: 0 hr 13 min 13 sec) 
Heartbeat CPU 3 instructions: 30000000 cycles: 9283323 heartbeat IPC: 3.54615 cumulative IPC: 3.2316 (Simulation time: 0 hr 16 min 50 sec) 
Heartbeat CPU 2 instructions: 30000000 cycles: 9664631 heartbeat IPC: 3.09846 cumulative IPC: 3.1041 (Simulation time: 0 hr 17 min 19 sec) 
Heartbeat CPU 0 instructions: 30000003 cycles: 10000012 heartbeat IPC: 3 cumulative IPC: 3 (Simulation time: 0 hr 17 min 43 sec) 
Heartbeat CPU 1 instructions: 30000003 cycles: 10000013 heartbeat IPC: 3 cumulative IPC: 3 (Simulation time: 0 hr 17 min 43 sec) 
Heartbeat CPU 3 instructions: 40000002 cycles: 12168443 heartbeat IPC: 3.46606 cumulative IPC: 3.28719 (Simulation time: 0 hr 20 min 26 sec) 
Heartbeat CPU 2 instructions: 40000002 cycles: 12895413 heartbeat IPC: 3.09523 cumulative IPC: 3.10188 (Simulation time: 0 hr 21 min 20 sec) 
Heartbeat CPU 0 instructions: 40000002 cycles: 13333345 heartbeat IPC: 3 cumulative IPC: 3 (Simulation time: 0 hr 21 min 50 sec) 
Heartbeat CPU 1 instructions: 40000002 cycles: 13333346 heartbeat IPC: 3 cumulative IPC: 3 (Simulation time: 0 hr 21 min 50 sec) 
Heartbeat CPU 3 instructions: 50000000 cycles: 15071365 heartbeat IPC: 3.4448 cumulative IPC: 3.31755 (Simulation time: 0 hr 23 min 52 sec) 
Heartbeat CPU 2 instructions: 50000000 cycles: 16125077 heartbeat IPC: 3.0963 cumulative IPC: 3.10076 (Simulation time: 0 hr 25 min 5 sec) 
Heartbeat CPU 0 instructions: 50000000 cycles: 16666677 heartbeat IPC: 3 cumulative IPC: 3 (Simulation time: 0 hr 25 min 39 sec) 
Heartbeat CPU 1 instructions: 50000000 cycles: 16666678 heartbeat IPC: 3 cumulative IPC: 3 (Simulation time: 0 hr 25 min 39 sec) 

Warmup complete CPU 0 instructions: 50000005 cycles: 16666679 (Simulation time: 0 hr 25 min 39 sec) 
Warmup complete CPU 1 instructions: 50000001 cycles: 16666679 (Simulation time: 0 hr 25 min 39 sec) 
Warmup complete CPU 2 instructions: 51593709 cycles: 16666678 (Simulation time: 0 hr 25 min 39 sec) 
Warmup complete CPU 3 instructions: 54935633 cycles: 16666678 (Simulation time: 0 hr 25 min 39 sec) 

Heartbeat CPU 3 instructions: 60000000 cycles: 24466184 heartbeat IPC: 1.06442 cumulative IPC: 0.649319 (Simulation time: 0 hr 28 min 32 sec) 
Heartbeat CPU 1 instructions: 60000002 cycles: 25437211 heartbeat IPC: 1.14018 cumulative IPC: 1.14018 (Simulation time: 0 hr 28 min 53 sec) 
Heartbeat CPU 0 instructions: 60000002 cycles: 25438290 heartbeat IPC: 1.14004 cumulative IPC: 1.14004 (Simulation time: 0 hr 28 min 53 sec) 
Heartbeat CPU 1 instructions: 70000000 cycles: 34244152 heartbeat IPC: 1.13547 cumulative IPC: 1.13782 (Simulation time: 0 hr 32 min 3 sec) 
Heartbeat CPU 0 instructions: 70000000 cycles: 34248238 heartbeat IPC: 1.13508 cumulative IPC: 1.13756 (Simulation time: 0 hr 32 min 3 sec) 
Heartbeat CPU 3 instructions: 70000000 cycles: 41616942 heartbeat IPC: 0.583065 cumulative IPC: 0.603776 (Simulation time: 0 hr 34 min 30 sec) 
Heartbeat CPU 1 instructions: 80000001 cycles: 43050359 heartbeat IPC: 1.13556 cumulative IPC: 1.13707 (Simulation time: 0 hr 34 min 59 sec) 
Heartbeat CPU 0 instructions: 80000001 cycles: 43055295 heartbeat IPC: 1.13545 cumulative IPC: 1.13685 (Simulation time: 0 hr 34 min 59 sec) 
Heartbeat CPU 1 instructions: 90000000 cycles: 51849218 heartbeat IPC: 1.13651 cumulative IPC: 1.13693 (Simulation time: 0 hr 37 min 55 sec) 
Heartbeat CPU 0 instructions: 90000000 cycles: 51858252 heartbeat IPC: 1.13598 cumulative IPC: 1.13664 (Simulation time: 0 hr 37 min 55 sec) 
Heartbeat CPU 2 instructions: 60000002 cycles: 55557366 heartbeat IPC: 0.253599 cumulative IPC: 0.216152 (Simulation time: 0 hr 39 min 12 sec) 
Heartbeat CPU 3 instructions: 80000000 cycles: 55724397 heartbeat IPC: 0.708845 cumulative IPC: 0.641726 (Simulation time: 0 hr 39 min 15 sec) 
Heartbeat CPU 1 instructions: 100000001 cycles: 60645278 heartbeat IPC: 1.13687 cumulative IPC: 1.13692 (Simulation time: 0 hr 40 min 59 sec) 
Heartbeat CPU 0 instructions: 100000001 cycles: 60659772 heartbeat IPC: 1.13617 cumulative IPC: 1.13654 (Simulation time: 0 hr 40 min 59 sec) 
Heartbeat CPU 1 instructions: 110000000 cycles: 69455236 heartbeat IPC: 1.13508 cumulative IPC: 1.13661 (Simulation time: 0 hr 44 min 1 sec) 
Heartbeat CPU 0 instructions: 110000000 cycles: 69462239 heartbeat IPC: 1.13605 cumulative IPC: 1.13646 (Simulation time: 0 hr 44 min 1 sec) 
Heartbeat CPU 3 instructions: 90000003 cycles: 70573960 heartbeat IPC: 0.673421 cumulative IPC: 0.650457 (Simulation time: 0 hr 44 min 24 sec) 
Heartbeat CPU 1 instructions: 120000003 cycles: 78293362 heartbeat IPC: 1.13146 cumulative IPC: 1.13587 (Simulation time: 0 hr 46 min 56 sec) 
Heartbeat CPU 0 instructions: 120000003 cycles: 78301911 heartbeat IPC: 1.13126 cumulative IPC: 1.13571 (Simulation time: 0 hr 46 min 56 sec) 
Heartbeat CPU 1 instructions: 130000001 cycles: 87179087 heartbeat IPC: 1.1254 cumulative IPC: 1.13455 (Simulation time: 0 hr 49 min 42 sec) 
Heartbeat CPU 0 instructions: 130000001 cycles: 87184622 heartbeat IPC: 1.12578 cumulative IPC: 1.13446 (Simulation time: 0 hr 49 min 42 sec) 
Heartbeat CPU 3 instructions: 100000000 cycles: 92632310 heartbeat IPC: 0.453343 cumulative IPC: 0.59322 (Simulation time: 0 hr 51 min 19 sec) 
Heartbeat CPU 0 instructions: 140000002 cycles: 96069003 heartbeat IPC: 1.12557 cumulative IPC: 1.13347 (Simulation time: 0 hr 52 min 54 sec) 
Heartbeat CPU 1 instructions: 140000002 cycles: 96077783 heartbeat IPC: 1.12376 cumulative IPC: 1.13334 (Simulation time: 0 hr 52 min 54 sec) 
Heartbeat CPU 3 instructions: 110000000 cycles: 98693356 heartbeat IPC: 1.64988 cumulative IPC: 0.671298 (Simulation time: 0 hr 53 min 58 sec) 
Heartbeat CPU 0 instructions: 150000003 cycles: 104877063 heartbeat IPC: 1.13532 cumulative IPC: 1.13365 (Simulation time: 0 hr 56 min 19 sec) 
Heartbeat CPU 1 instructions: 150000003 cycles: 104884631 heartbeat IPC: 1.13548 cumulative IPC: 1.13356 (Simulation time: 0 hr 56 min 19 sec) 
Heartbeat CPU 3 instructions: 120000001 cycles: 106432265 heartbeat IPC: 1.29217 cumulative IPC: 0.724825 (Simulation time: 0 hr 57 min 0 sec) 
Heartbeat CPU 2 instructions: 70000002 cycles: 110905521 heartbeat IPC: 0.180674 cumulative IPC: 0.195315 (Simulation time: 0 hr 59 min 0 sec) 
Heartbeat CPU 3 instructions: 130000000 cycles: 112221737 heartbeat IPC: 1.72727 cumulative IPC: 0.785561 (Simulation time: 0 hr 59 min 31 sec) 
Heartbeat CPU 0 instructions: 160000000 cycles: 113684243 heartbeat IPC: 1.13544 cumulative IPC: 1.13382 (Simulation time: 1 hr 0 min 6 sec) 
Heartbeat CPU 1 instructions: 160000000 cycles: 113692329 heartbeat IPC: 1.13537 cumulative IPC: 1.13372 (Simulation time: 1 hr 0 min 6 sec) 
Heartbeat CPU 3 instructions: 140000000 cycles: 119551587 heartbeat IPC: 1.36428 cumulative IPC: 0.826791 (Simulation time: 1 hr 2 min 30 sec) 
Heartbeat CPU 0 instructions: 170000001 cycles: 122400869 heartbeat IPC: 1.14723 cumulative IPC: 1.13492 (Simulation time: 1 hr 3 min 42 sec) 
Heartbeat CPU 1 instructions: 170000001 cycles: 122410521 heartbeat IPC: 1.14703 cumulative IPC: 1.13482 (Simulation time: 1 hr 3 min 42 sec) 
Heartbeat CPU 3 instructions: 150000002 cycles: 126081099 heartbeat IPC: 1.53151 cumulative IPC: 0.868847 (Simulation time: 1 hr 5 min 13 sec) 
Heartbeat CPU 0 instructions: 180000001 cycles: 131201227 heartbeat IPC: 1.13632 cumulative IPC: 1.13503 (Simulation time: 1 hr 7 min 24 sec) 
Heartbeat CPU 1 instructions: 180000001 cycles: 131213379 heartbeat IPC: 1.13599 cumulative IPC: 1.13491 (Simulation time: 1 hr 7 min 25 sec) 
Heartbeat CPU 3 instructions: 160000001 cycles: 132490492 heartbeat IPC: 1.56021 cumulative IPC: 0.907105 (Simulation time: 1 hr 7 min 55 sec) 
Heartbeat CPU 3 instructions: 170000003 cycles: 139891960 heartbeat IPC: 1.35108 cumulative IPC: 0.933772 (Simulation time: 1 hr 10 min 55 sec) 
Heartbeat CPU 0 instructions: 190000002 cycles: 140052954 heartbeat IPC: 1.12972 cumulative IPC: 1.13465 (Simulation time: 1 hr 10 min 59 sec) 
Heartbeat CPU 1 instructions: 190000002 cycles: 140062553 heartbeat IPC: 1.13005 cumulative IPC: 1.13456 (Simulation time: 1 hr 11 min 0 sec) 
Heartbeat CPU 3 instructions: 180000000 cycles: 145594104 heartbeat IPC: 1.75373 cumulative IPC: 0.970037 (Simulation time: 1 hr 13 min 21 sec) 
Heartbeat CPU 0 instructions: 200000000 cycles: 148929966 heartbeat IPC: 1.1265 cumulative IPC: 1.1341 (Simulation time: 1 hr 14 min 39 sec) 
Heartbeat CPU 1 instructions: 200000000 cycles: 148936682 heartbeat IPC: 1.12687 cumulative IPC: 1.13404 (Simulation time: 1 hr 14 min 39 sec) 
Heartbeat CPU 3 instructions: 190000000 cycles: 156823095 heartbeat IPC: 0.890552 cumulative IPC: 0.963669 (Simulation time: 1 hr 17 min 37 sec) 
Heartbeat CPU 0 instructions: 210000000 cycles: 157781141 heartbeat IPC: 1.12979 cumulative IPC: 1.13383 (Simulation time: 1 hr 17 min 58 sec) 
Heartbeat CPU 1 instructions: 210000000 cycles: 157783078 heartbeat IPC: 1.1304 cumulative IPC: 1.13382 (Simulation time: 1 hr 17 min 58 sec) 
Heartbeat CPU 2 instructions: 80000003 cycles: 158805433 heartbeat IPC: 0.208769 cumulative IPC: 0.199849 (Simulation time: 1 hr 18 min 21 sec) 
Heartbeat CPU 0 instructions: 220000000 cycles: 166700319 heartbeat IPC: 1.12118 cumulative IPC: 1.13308 (Simulation time: 1 hr 21 min 26 sec) 
Heartbeat CPU 1 instructions: 220000000 cycles: 166705586 heartbeat IPC: 1.12076 cumulative IPC: 1.13304 (Simulation time: 1 hr 21 min 27 sec) 
Heartbeat CPU 3 instructions: 200000003 cycles: 168529860 heartbeat IPC: 0.854207 cumulative IPC: 0.955231 (Simulation time: 1 hr 22 min 10 sec) 
Heartbeat CPU 0 instructions: 230000002 cycles: 175518518 heartbeat IPC: 1.13402 cumulative IPC: 1.13313 (Simulation time: 1 hr 24 min 57 sec) 
Heartbeat CPU 1 instructions: 230000002 cycles: 175519701 heartbeat IPC: 1.13454 cumulative IPC: 1.13312 (Simulation time: 1 hr 24 min 57 sec) 
Heartbeat CPU 3 instructions: 210000000 cycles: 180123063 heartbeat IPC: 0.862574 cumulative IPC: 0.948659 (Simulation time: 1 hr 26 min 43 sec) 
Heartbeat CPU 0 instructions: 240000000 cycles: 184309573 heartbeat IPC: 1.13752 cumulative IPC: 1.13336 (Simulation time: 1 hr 28 min 19 sec) 
Heartbeat CPU 1 instructions: 240000000 cycles: 184317127 heartbeat IPC: 1.1367 cumulative IPC: 1.13331 (Simulation time: 1 hr 28 min 19 sec) 
Heartbeat CPU 3 instructions: 220000000 cycles: 191843632 heartbeat IPC: 0.853201 cumulative IPC: 0.942272 (Simulation time: 1 hr 31 min 13 sec) 
Heartbeat CPU 2 instructions: 90000002 cycles: 192443029 heartbeat IPC: 0.297286 cumulative IPC: 0.218495 (Simulation time: 1 hr 31 min 30 sec) 
*** Reached end of trace for Core: 0 Repeating trace: ./traces/ligra/ligra_PageRankDelta.com-lj.ungraph.gcc_6.3.0_O3.drop_3500M.length_250M.champsimtrace.xz
Heartbeat CPU 0 instructions: 250000002 cycles: 193069882 heartbeat IPC: 1.14151 cumulative IPC: 1.13377 (Simulation time: 1 hr 31 min 44 sec) 
Finished CPU 0 instructions: 200000000 cycles: 176405458 cumulative IPC: 1.13375 (Simulation time: 1 hr 31 min 44 sec) 
*** Reached end of trace for Core: 1 Repeating trace: ./traces/ligra/ligra_PageRankDelta.com-lj.ungraph.gcc_6.3.0_O3.drop_3500M.length_250M.champsimtrace.xz
Heartbeat CPU 1 instructions: 250000002 cycles: 193077705 heartbeat IPC: 1.14148 cumulative IPC: 1.13372 (Simulation time: 1 hr 31 min 44 sec) 
Finished CPU 1 instructions: 200000001 cycles: 176411026 cumulative IPC: 1.13372 (Simulation time: 1 hr 31 min 44 sec) 
Heartbeat CPU 0 instructions: 260000001 cycles: 201726056 heartbeat IPC: 1.15524 cumulative IPC: 1.13477 (Simulation time: 1 hr 34 min 32 sec) 
Heartbeat CPU 1 instructions: 260000001 cycles: 201733091 heartbeat IPC: 1.15535 cumulative IPC: 1.13473 (Simulation time: 1 hr 34 min 32 sec) 
Heartbeat CPU 0 instructions: 270000002 cycles: 210402167 heartbeat IPC: 1.15259 cumulative IPC: 1.13557 (Simulation time: 1 hr 37 min 13 sec) 
Heartbeat CPU 1 instructions: 270000002 cycles: 210410872 heartbeat IPC: 1.15237 cumulative IPC: 1.13552 (Simulation time: 1 hr 37 min 13 sec) 
Heartbeat CPU 3 instructions: 230000001 cycles: 211835642 heartbeat IPC: 0.5002 cumulative IPC: 0.896989 (Simulation time: 1 hr 37 min 39 sec) 
Heartbeat CPU 0 instructions: 280000001 cycles: 219045761 heartbeat IPC: 1.15693 cumulative IPC: 1.13648 (Simulation time: 1 hr 40 min 10 sec) 
Heartbeat CPU 1 instructions: 280000001 cycles: 219052702 heartbeat IPC: 1.15716 cumulative IPC: 1.13644 (Simulation time: 1 hr 40 min 10 sec) 
Heartbeat CPU 0 instructions: 290000000 cycles: 227713437 heartbeat IPC: 1.15371 cumulative IPC: 1.13719 (Simulation time: 1 hr 43 min 7 sec) 
Heartbeat CPU 1 instructions: 290000000 cycles: 227716909 heartbeat IPC: 1.15417 cumulative IPC: 1.13717 (Simulation time: 1 hr 43 min 7 sec) 
Heartbeat CPU 3 instructions: 240000001 cycles: 232884277 heartbeat IPC: 0.47509 cumulative IPC: 0.855917 (Simulation time: 1 hr 45 min 11 sec) 
Heartbeat CPU 0 instructions: 300000003 cycles: 236365334 heartbeat IPC: 1.15582 cumulative IPC: 1.13792 (Simulation time: 1 hr 46 min 44 sec) 
Heartbeat CPU 1 instructions: 300000003 cycles: 236367664 heartbeat IPC: 1.15597 cumulative IPC: 1.13791 (Simulation time: 1 hr 46 min 44 sec) 
Heartbeat CPU 3 instructions: 250000000 cycles: 238913312 heartbeat IPC: 1.65864 cumulative IPC: 0.877693 (Simulation time: 1 hr 47 min 58 sec) 
Heartbeat CPU 2 instructions: 100000002 cycles: 240988711 heartbeat IPC: 0.205992 cumulative IPC: 0.215789 (Simulation time: 1 hr 48 min 58 sec) 
Finished CPU 3 instructions: 200000002 cycles: 225486259 cumulative IPC: 0.886972 (Simulation time: 1 hr 49 min 31 sec) 
Heartbeat CPU 0 instructions: 310000002 cycles: 245006472 heartbeat IPC: 1.15725 cumulative IPC: 1.13865 (Simulation time: 1 hr 50 min 54 sec) 
Heartbeat CPU 1 instructions: 310000002 cycles: 245008351 heartbeat IPC: 1.15732 cumulative IPC: 1.13864 (Simulation time: 1 hr 50 min 54 sec) 
Heartbeat CPU 3 instructions: 260000001 cycles: 245215402 heartbeat IPC: 1.58678 cumulative IPC: 0.897246 (Simulation time: 1 hr 51 min 0 sec) 
Heartbeat CPU 3 instructions: 270000000 cycles: 251617344 heartbeat IPC: 1.56203 cumulative IPC: 0.91536 (Simulation time: 1 hr 53 min 55 sec) 
Heartbeat CPU 0 instructions: 320000000 cycles: 253675445 heartbeat IPC: 1.15354 cumulative IPC: 1.1392 (Simulation time: 1 hr 54 min 44 sec) 
Heartbeat CPU 1 instructions: 320000000 cycles: 253676712 heartbeat IPC: 1.15362 cumulative IPC: 1.13919 (Simulation time: 1 hr 54 min 44 sec) 
Heartbeat CPU 3 instructions: 280000000 cycles: 257682941 heartbeat IPC: 1.64864 cumulative IPC: 0.933814 (Simulation time: 1 hr 56 min 31 sec) 
Heartbeat CPU 0 instructions: 330000000 cycles: 262307130 heartbeat IPC: 1.15852 cumulative IPC: 1.13988 (Simulation time: 1 hr 58 min 44 sec) 
Heartbeat CPU 1 instructions: 330000000 cycles: 262308456 heartbeat IPC: 1.15851 cumulative IPC: 1.13987 (Simulation time: 1 hr 58 min 44 sec) 
Heartbeat CPU 3 instructions: 290000000 cycles: 263759237 heartbeat IPC: 1.64574 cumulative IPC: 0.951321 (Simulation time: 1 hr 59 min 22 sec) 
Heartbeat CPU 0 instructions: 340000000 cycles: 270976302 heartbeat IPC: 1.15351 cumulative IPC: 1.14034 (Simulation time: 2 hr 2 min 15 sec) 
Heartbeat CPU 1 instructions: 340000000 cycles: 270978001 heartbeat IPC: 1.15346 cumulative IPC: 1.14033 (Simulation time: 2 hr 2 min 15 sec) 
Heartbeat CPU 3 instructions: 300000003 cycles: 272387454 heartbeat IPC: 1.15899 cumulative IPC: 0.958328 (Simulation time: 2 hr 2 min 46 sec) 
Heartbeat CPU 0 instructions: 350000002 cycles: 279630183 heartbeat IPC: 1.15555 cumulative IPC: 1.14084 (Simulation time: 2 hr 5 min 12 sec) 
Heartbeat CPU 1 instructions: 350000002 cycles: 279632019 heartbeat IPC: 1.15553 cumulative IPC: 1.14083 (Simulation time: 2 hr 5 min 12 sec) 
Heartbeat CPU 3 instructions: 310000001 cycles: 285261767 heartbeat IPC: 0.77674 cumulative IPC: 0.949624 (Simulation time: 2 hr 7 min 11 sec) 
Heartbeat CPU 0 instructions: 360000000 cycles: 288295773 heartbeat IPC: 1.15399 cumulative IPC: 1.14126 (Simulation time: 2 hr 8 min 15 sec) 
Heartbeat CPU 1 instructions: 360000000 cycles: 288299635 heartbeat IPC: 1.15372 cumulative IPC: 1.14125 (Simulation time: 2 hr 8 min 15 sec) 
Heartbeat CPU 2 instructions: 110000000 cycles: 289893304 heartbeat IPC: 0.20448 cumulative IPC: 0.213765 (Simulation time: 2 hr 8 min 52 sec) 
Heartbeat CPU 0 instructions: 370000003 cycles: 296982420 heartbeat IPC: 1.15119 cumulative IPC: 1.14157 (Simulation time: 2 hr 11 min 35 sec) 
Heartbeat CPU 1 instructions: 370000003 cycles: 296987365 heartbeat IPC: 1.15105 cumulative IPC: 1.14155 (Simulation time: 2 hr 11 min 35 sec) 
Heartbeat CPU 3 instructions: 320000000 cycles: 297520566 heartbeat IPC: 0.815741 cumulative IPC: 0.94378 (Simulation time: 2 hr 11 min 47 sec) 
Heartbeat CPU 0 instructions: 380000001 cycles: 305689436 heartbeat IPC: 1.1485 cumulative IPC: 1.14178 (Simulation time: 2 hr 15 min 0 sec) 
Heartbeat CPU 1 instructions: 380000001 cycles: 305690966 heartbeat IPC: 1.14895 cumulative IPC: 1.14177 (Simulation time: 2 hr 15 min 0 sec) 
Heartbeat CPU 3 instructions: 330000000 cycles: 305787758 heartbeat IPC: 1.2096 cumulative IPC: 0.951381 (Simulation time: 2 hr 15 min 2 sec) 
Heartbeat CPU 3 instructions: 340000003 cycles: 312929331 heartbeat IPC: 1.40025 cumulative IPC: 0.962201 (Simulation time: 2 hr 17 min 56 sec) 
Heartbeat CPU 0 instructions: 390000002 cycles: 314387527 heartbeat IPC: 1.14968 cumulative IPC: 1.14201 (Simulation time: 2 hr 18 min 36 sec) 
Heartbeat CPU 1 instructions: 390000002 cycles: 314391202 heartbeat IPC: 1.14939 cumulative IPC: 1.142 (Simulation time: 2 hr 18 min 36 sec) 
Heartbeat CPU 0 instructions: 400000003 cycles: 323089079 heartbeat IPC: 1.14922 cumulative IPC: 1.14221 (Simulation time: 2 hr 21 min 16 sec) 
Heartbeat CPU 1 instructions: 400000003 cycles: 323089130 heartbeat IPC: 1.1497 cumulative IPC: 1.14221 (Simulation time: 2 hr 21 min 16 sec) 
Heartbeat CPU 1 instructions: 410000000 cycles: 331799041 heartbeat IPC: 1.14812 cumulative IPC: 1.14238 (Simulation time: 2 hr 24 min 1 sec) 
Heartbeat CPU 0 instructions: 410000000 cycles: 331799087 heartbeat IPC: 1.1481 cumulative IPC: 1.14238 (Simulation time: 2 hr 24 min 1 sec) 
Heartbeat CPU 3 instructions: 350000000 cycles: 331971355 heartbeat IPC: 0.525154 cumulative IPC: 0.935807 (Simulation time: 2 hr 24 min 4 sec) 
Heartbeat CPU 1 instructions: 420000001 cycles: 340409174 heartbeat IPC: 1.16142 cumulative IPC: 1.14288 (Simulation time: 2 hr 26 min 51 sec) 
Heartbeat CPU 0 instructions: 420000001 cycles: 340412487 heartbeat IPC: 1.16098 cumulative IPC: 1.14287 (Simulation time: 2 hr 26 min 51 sec) 
Heartbeat CPU 3 instructions: 360000001 cycles: 347306633 heartbeat IPC: 0.652091 cumulative IPC: 0.922648 (Simulation time: 2 hr 29 min 12 sec) 
Heartbeat CPU 1 instructions: 430000001 cycles: 349094535 heartbeat IPC: 1.15136 cumulative IPC: 1.14311 (Simulation time: 2 hr 29 min 48 sec) 
Heartbeat CPU 0 instructions: 430000001 cycles: 349096986 heartbeat IPC: 1.15148 cumulative IPC: 1.1431 (Simulation time: 2 hr 29 min 48 sec) 
Heartbeat CPU 1 instructions: 440000000 cycles: 357831997 heartbeat IPC: 1.1445 cumulative IPC: 1.14314 (Simulation time: 2 hr 32 min 44 sec) 
Heartbeat CPU 0 instructions: 440000000 cycles: 357834365 heartbeat IPC: 1.14451 cumulative IPC: 1.14313 (Simulation time: 2 hr 32 min 44 sec) 
Heartbeat CPU 2 instructions: 120000002 cycles: 358162581 heartbeat IPC: 0.146479 cumulative IPC: 0.200314 (Simulation time: 2 hr 32 min 51 sec) 
Heartbeat CPU 3 instructions: 370000000 cycles: 362537239 heartbeat IPC: 0.656573 cumulative IPC: 0.910931 (Simulation time: 2 hr 34 min 19 sec) 
Heartbeat CPU 1 instructions: 450000002 cycles: 366595305 heartbeat IPC: 1.14112 cumulative IPC: 1.14309 (Simulation time: 2 hr 35 min 36 sec) 
Heartbeat CPU 0 instructions: 450000002 cycles: 366596183 heartbeat IPC: 1.14132 cumulative IPC: 1.14309 (Simulation time: 2 hr 35 min 36 sec) 
Heartbeat CPU 1 instructions: 460000000 cycles: 375335382 heartbeat IPC: 1.14415 cumulative IPC: 1.14312 (Simulation time: 2 hr 38 min 9 sec) 
Heartbeat CPU 0 instructions: 460000000 cycles: 375337601 heartbeat IPC: 1.14398 cumulative IPC: 1.14311 (Simulation time: 2 hr 38 min 9 sec) 
Heartbeat CPU 3 instructions: 380000002 cycles: 380364562 heartbeat IPC: 0.560937 cumulative IPC: 0.893776 (Simulation time: 2 hr 39 min 33 sec) 
Heartbeat CPU 1 instructions: 470000002 cycles: 384158066 heartbeat IPC: 1.13344 cumulative IPC: 1.14288 (Simulation time: 2 hr 40 min 48 sec) 
Heartbeat CPU 0 instructions: 470000002 cycles: 384159195 heartbeat IPC: 1.13358 cumulative IPC: 1.14288 (Simulation time: 2 hr 40 min 48 sec) 
Heartbeat CPU 1 instructions: 480000000 cycles: 392877438 heartbeat IPC: 1.14687 cumulative IPC: 1.14298 (Simulation time: 2 hr 43 min 49 sec) 
Heartbeat CPU 0 instructions: 480000000 cycles: 392877727 heartbeat IPC: 1.14698 cumulative IPC: 1.14298 (Simulation time: 2 hr 43 min 49 sec) 
Heartbeat CPU 3 instructions: 390000003 cycles: 394922083 heartbeat IPC: 0.68693 cumulative IPC: 0.885815 (Simulation time: 2 hr 44 min 34 sec) 
Heartbeat CPU 1 instructions: 490000000 cycles: 401577439 heartbeat IPC: 1.14943 cumulative IPC: 1.14312 (Simulation time: 2 hr 46 min 51 sec) 
Heartbeat CPU 0 instructions: 490000000 cycles: 401579759 heartbeat IPC: 1.14916 cumulative IPC: 1.14312 (Simulation time: 2 hr 46 min 51 sec) 
Heartbeat CPU 3 instructions: 400000001 cycles: 410150897 heartbeat IPC: 0.65665 cumulative IPC: 0.876946 (Simulation time: 2 hr 49 min 55 sec) 
*** Reached end of trace for Core: 1 Repeating trace: ./traces/ligra/ligra_PageRankDelta.com-lj.ungraph.gcc_6.3.0_O3.drop_3500M.length_250M.champsimtrace.xz
Heartbeat CPU 1 instructions: 500000002 cycles: 410242675 heartbeat IPC: 1.15404 cumulative IPC: 1.14336 (Simulation time: 2 hr 49 min 57 sec) 
*** Reached end of trace for Core: 0 Repeating trace: ./traces/ligra/ligra_PageRankDelta.com-lj.ungraph.gcc_6.3.0_O3.drop_3500M.length_250M.champsimtrace.xz
Heartbeat CPU 0 instructions: 500000002 cycles: 410243481 heartbeat IPC: 1.15424 cumulative IPC: 1.14336 (Simulation time: 2 hr 49 min 57 sec) 
Heartbeat CPU 1 instructions: 510000001 cycles: 418896916 heartbeat IPC: 1.1555 cumulative IPC: 1.14362 (Simulation time: 2 hr 52 min 48 sec) 
Heartbeat CPU 0 instructions: 510000001 cycles: 418902229 heartbeat IPC: 1.1549 cumulative IPC: 1.14361 (Simulation time: 2 hr 52 min 48 sec) 
Heartbeat CPU 2 instructions: 130000002 cycles: 420995982 heartbeat IPC: 0.159151 cumulative IPC: 0.193917 (Simulation time: 2 hr 53 min 27 sec) 
Heartbeat CPU 1 instructions: 520000002 cycles: 427574046 heartbeat IPC: 1.15245 cumulative IPC: 1.14381 (Simulation time: 2 hr 55 min 41 sec) 
Heartbeat CPU 0 instructions: 520000002 cycles: 427579036 heartbeat IPC: 1.1525 cumulative IPC: 1.1438 (Simulation time: 2 hr 55 min 41 sec) 
Heartbeat CPU 3 instructions: 410000000 cycles: 428166196 heartbeat IPC: 0.555084 cumulative IPC: 0.862855 (Simulation time: 2 hr 55 min 54 sec) 
Heartbeat CPU 1 instructions: 530000001 cycles: 436217175 heartbeat IPC: 1.15699 cumulative IPC: 1.14408 (Simulation time: 2 hr 58 min 45 sec) 
Heartbeat CPU 0 instructions: 530000001 cycles: 436223032 heartbeat IPC: 1.15687 cumulative IPC: 1.14407 (Simulation time: 2 hr 58 min 45 sec) 
Heartbeat CPU 3 instructions: 420000001 cycles: 443260994 heartbeat IPC: 0.66248 cumulative IPC: 0.855765 (Simulation time: 3 hr 1 min 19 sec) 
Heartbeat CPU 1 instructions: 540000000 cycles: 444871215 heartbeat IPC: 1.15553 cumulative IPC: 1.14431 (Simulation time: 3 hr 1 min 54 sec) 
Heartbeat CPU 0 instructions: 540000000 cycles: 444876926 heartbeat IPC: 1.15555 cumulative IPC: 1.1443 (Simulation time: 3 hr 1 min 54 sec) 
Heartbeat CPU 1 instructions: 550000000 cycles: 453518505 heartbeat IPC: 1.15643 cumulative IPC: 1.14455 (Simulation time: 3 hr 5 min 1 sec) 
Heartbeat CPU 0 instructions: 550000000 cycles: 453522784 heartbeat IPC: 1.15662 cumulative IPC: 1.14454 (Simulation time: 3 hr 5 min 1 sec) 
Heartbeat CPU 3 instructions: 430000000 cycles: 460277050 heartbeat IPC: 0.58768 cumulative IPC: 0.845482 (Simulation time: 3 hr 7 min 17 sec) 
Heartbeat CPU 1 instructions: 560000003 cycles: 462165882 heartbeat IPC: 1.15642 cumulative IPC: 1.14478 (Simulation time: 3 hr 7 min 52 sec) 
Heartbeat CPU 0 instructions: 560000003 cycles: 462169247 heartbeat IPC: 1.15654 cumulative IPC: 1.14477 (Simulation time: 3 hr 7 min 52 sec) 
Heartbeat CPU 1 instructions: 570000000 cycles: 470837384 heartbeat IPC: 1.1532 cumulative IPC: 1.14494 (Simulation time: 3 hr 10 min 49 sec) 
Heartbeat CPU 0 instructions: 570000000 cycles: 470841564 heartbeat IPC: 1.15309 cumulative IPC: 1.14493 (Simulation time: 3 hr 10 min 49 sec) 
Heartbeat CPU 3 instructions: 440000000 cycles: 476707989 heartbeat IPC: 0.608608 cumulative IPC: 0.837021 (Simulation time: 3 hr 12 min 41 sec) 
Heartbeat CPU 1 instructions: 580000001 cycles: 479473277 heartbeat IPC: 1.15796 cumulative IPC: 1.14519 (Simulation time: 3 hr 13 min 38 sec) 
Heartbeat CPU 0 instructions: 580000001 cycles: 479474657 heartbeat IPC: 1.15833 cumulative IPC: 1.14518 (Simulation time: 3 hr 13 min 38 sec) 
Heartbeat CPU 2 instructions: 140000002 cycles: 484724918 heartbeat IPC: 0.156915 cumulative IPC: 0.188879 (Simulation time: 3 hr 15 min 27 sec) 
Heartbeat CPU 1 instructions: 590000000 cycles: 488143550 heartbeat IPC: 1.15337 cumulative IPC: 1.14534 (Simulation time: 3 hr 16 min 36 sec) 
Heartbeat CPU 0 instructions: 590000000 cycles: 488145262 heartbeat IPC: 1.15332 cumulative IPC: 1.14533 (Simulation time: 3 hr 16 min 36 sec) 
Heartbeat CPU 3 instructions: 450000000 cycles: 491714426 heartbeat IPC: 0.666381 cumulative IPC: 0.831631 (Simulation time: 3 hr 17 min 50 sec) 
Heartbeat CPU 1 instructions: 600000001 cycles: 496799390 heartbeat IPC: 1.15529 cumulative IPC: 1.14552 (Simulation time: 3 hr 19 min 36 sec) 
Heartbeat CPU 0 instructions: 600000001 cycles: 496800998 heartbeat IPC: 1.1553 cumulative IPC: 1.14551 (Simulation time: 3 hr 19 min 36 sec) 
Heartbeat CPU 1 instructions: 610000000 cycles: 505467962 heartbeat IPC: 1.15359 cumulative IPC: 1.14566 (Simulation time: 3 hr 22 min 24 sec) 
Heartbeat CPU 0 instructions: 610000000 cycles: 505470249 heartbeat IPC: 1.1535 cumulative IPC: 1.14565 (Simulation time: 3 hr 22 min 24 sec) 
Heartbeat CPU 3 instructions: 460000003 cycles: 510490164 heartbeat IPC: 0.532602 cumulative IPC: 0.820261 (Simulation time: 3 hr 23 min 58 sec) 
Heartbeat CPU 1 instructions: 620000003 cycles: 514162624 heartbeat IPC: 1.15013 cumulative IPC: 1.14574 (Simulation time: 3 hr 25 min 8 sec) 
Heartbeat CPU 0 instructions: 620000003 cycles: 514166772 heartbeat IPC: 1.14989 cumulative IPC: 1.14573 (Simulation time: 3 hr 25 min 8 sec) 
Heartbeat CPU 1 instructions: 630000001 cycles: 522870457 heartbeat IPC: 1.14839 cumulative IPC: 1.14578 (Simulation time: 3 hr 27 min 47 sec) 
Heartbeat CPU 0 instructions: 630000001 cycles: 522873706 heartbeat IPC: 1.14851 cumulative IPC: 1.14578 (Simulation time: 3 hr 27 min 47 sec) 
Heartbeat CPU 1 instructions: 640000003 cycles: 531574823 heartbeat IPC: 1.14885 cumulative IPC: 1.14584 (Simulation time: 3 hr 30 min 41 sec) 
Heartbeat CPU 0 instructions: 640000003 cycles: 531574872 heartbeat IPC: 1.14927 cumulative IPC: 1.14584 (Simulation time: 3 hr 30 min 41 sec) 
Heartbeat CPU 3 instructions: 470000002 cycles: 531938361 heartbeat IPC: 0.46624 cumulative IPC: 0.805525 (Simulation time: 3 hr 30 min 50 sec) 
Heartbeat CPU 3 instructions: 480000000 cycles: 537985788 heartbeat IPC: 1.6536 cumulative IPC: 0.815363 (Simulation time: 3 hr 33 min 29 sec) 
Heartbeat CPU 1 instructions: 650000003 cycles: 540262646 heartbeat IPC: 1.15104 cumulative IPC: 1.14592 (Simulation time: 3 hr 34 min 33 sec) 
Heartbeat CPU 0 instructions: 650000003 cycles: 540264301 heartbeat IPC: 1.15082 cumulative IPC: 1.14592 (Simulation time: 3 hr 34 min 33 sec) 
Heartbeat CPU 3 instructions: 490000000 cycles: 543882152 heartbeat IPC: 1.69596 cumulative IPC: 0.825212 (Simulation time: 3 hr 36 min 14 sec) 
Heartbeat CPU 1 instructions: 660000000 cycles: 548955173 heartbeat IPC: 1.15041 cumulative IPC: 1.146 (Simulation time: 3 hr 38 min 28 sec) 
Heartbeat CPU 0 instructions: 660000000 cycles: 548957671 heartbeat IPC: 1.1503 cumulative IPC: 1.14599 (Simulation time: 3 hr 38 min 28 sec) 
Heartbeat CPU 3 instructions: 500000003 cycles: 550767055 heartbeat IPC: 1.45245 cumulative IPC: 0.833297 (Simulation time: 3 hr 39 min 11 sec) 
Heartbeat CPU 2 instructions: 150000000 cycles: 556482859 heartbeat IPC: 0.139357 cumulative IPC: 0.182296 (Simulation time: 3 hr 41 min 28 sec) 
Heartbeat CPU 1 instructions: 670000002 cycles: 557559402 heartbeat IPC: 1.16222 cumulative IPC: 1.14625 (Simulation time: 3 hr 41 min 51 sec) 
Heartbeat CPU 0 instructions: 670000002 cycles: 557561730 heartbeat IPC: 1.16224 cumulative IPC: 1.14625 (Simulation time: 3 hr 41 min 51 sec) 
Heartbeat CPU 3 instructions: 510000002 cycles: 560379061 heartbeat IPC: 1.04037 cumulative IPC: 0.836958 (Simulation time: 3 hr 43 min 1 sec) 
Heartbeat CPU 1 instructions: 680000001 cycles: 566247416 heartbeat IPC: 1.15101 cumulative IPC: 1.14633 (Simulation time: 3 hr 45 min 41 sec) 
Heartbeat CPU 0 instructions: 680000001 cycles: 566248760 heartbeat IPC: 1.15114 cumulative IPC: 1.14633 (Simulation time: 3 hr 45 min 41 sec) 
Heartbeat CPU 3 instructions: 520000002 cycles: 566375042 heartbeat IPC: 1.66778 cumulative IPC: 0.84602 (Simulation time: 3 hr 45 min 45 sec) 
Heartbeat CPU 3 instructions: 530000002 cycles: 572317023 heartbeat IPC: 1.68294 cumulative IPC: 0.85497 (Simulation time: 3 hr 48 min 35 sec) 
Heartbeat CPU 1 instructions: 690000002 cycles: 574986019 heartbeat IPC: 1.14435 cumulative IPC: 1.1463 (Simulation time: 3 hr 49 min 47 sec) 
Heartbeat CPU 0 instructions: 690000002 cycles: 574986998 heartbeat IPC: 1.1444 cumulative IPC: 1.1463 (Simulation time: 3 hr 49 min 47 sec) 
Heartbeat CPU 3 instructions: 540000001 cycles: 580720582 heartbeat IPC: 1.18997 cumulative IPC: 0.859961 (Simulation time: 3 hr 51 min 52 sec) 
Heartbeat CPU 1 instructions: 700000000 cycles: 583746206 heartbeat IPC: 1.14153 cumulative IPC: 1.14622 (Simulation time: 3 hr 52 min 56 sec) 
Heartbeat CPU 0 instructions: 700000000 cycles: 583747394 heartbeat IPC: 1.1415 cumulative IPC: 1.14622 (Simulation time: 3 hr 52 min 56 sec) 
Heartbeat CPU 3 instructions: 550000000 cycles: 591094712 heartbeat IPC: 0.963936 cumulative IPC: 0.861839 (Simulation time: 3 hr 55 min 43 sec) 
Heartbeat CPU 1 instructions: 710000000 cycles: 592483900 heartbeat IPC: 1.14447 cumulative IPC: 1.1462 (Simulation time: 3 hr 56 min 20 sec) 
Heartbeat CPU 0 instructions: 710000000 cycles: 592487474 heartbeat IPC: 1.14415 cumulative IPC: 1.14619 (Simulation time: 3 hr 56 min 20 sec) 
Heartbeat CPU 3 instructions: 560000001 cycles: 597093197 heartbeat IPC: 1.66709 cumulative IPC: 0.870161 (Simulation time: 3 hr 58 min 18 sec) 
Heartbeat CPU 1 instructions: 720000002 cycles: 601304149 heartbeat IPC: 1.13376 cumulative IPC: 1.14601 (Simulation time: 4 hr 0 min 14 sec) 
Heartbeat CPU 0 instructions: 720000002 cycles: 601307353 heartbeat IPC: 1.1338 cumulative IPC: 1.146 (Simulation time: 4 hr 0 min 14 sec) 
Heartbeat CPU 3 instructions: 570000000 cycles: 603067429 heartbeat IPC: 1.67386 cumulative IPC: 0.878349 (Simulation time: 4 hr 0 min 59 sec) 
Heartbeat CPU 1 instructions: 730000000 cycles: 610025171 heartbeat IPC: 1.14665 cumulative IPC: 1.14602 (Simulation time: 4 hr 3 min 46 sec) 
Heartbeat CPU 0 instructions: 730000000 cycles: 610026884 heartbeat IPC: 1.14685 cumulative IPC: 1.14602 (Simulation time: 4 hr 3 min 46 sec) 
Heartbeat CPU 2 instructions: 160000003 cycles: 610780400 heartbeat IPC: 0.18417 cumulative IPC: 0.182467 (Simulation time: 4 hr 4 min 3 sec) 
Heartbeat CPU 3 instructions: 580000002 cycles: 611221028 heartbeat IPC: 1.22645 cumulative IPC: 0.883123 (Simulation time: 4 hr 4 min 13 sec) 
Heartbeat CPU 1 instructions: 740000002 cycles: 618726474 heartbeat IPC: 1.14925 cumulative IPC: 1.14607 (Simulation time: 4 hr 6 min 37 sec) 
Heartbeat CPU 0 instructions: 740000002 cycles: 618729473 heartbeat IPC: 1.14908 cumulative IPC: 1.14606 (Simulation time: 4 hr 6 min 37 sec) 
Heartbeat CPU 3 instructions: 590000001 cycles: 621312344 heartbeat IPC: 0.990951 cumulative IPC: 0.884922 (Simulation time: 4 hr 7 min 35 sec) 
Heartbeat CPU 3 instructions: 600000001 cycles: 627298377 heartbeat IPC: 1.67056 cumulative IPC: 0.892624 (Simulation time: 4 hr 10 min 4 sec) 
*** Reached end of trace for Core: 1 Repeating trace: ./traces/ligra/ligra_PageRankDelta.com-lj.ungraph.gcc_6.3.0_O3.drop_3500M.length_250M.champsimtrace.xz
Heartbeat CPU 1 instructions: 750000002 cycles: 627389529 heartbeat IPC: 1.15433 cumulative IPC: 1.14618 (Simulation time: 4 hr 10 min 6 sec) 
*** Reached end of trace for Core: 0 Repeating trace: ./traces/ligra/ligra_PageRankDelta.com-lj.ungraph.gcc_6.3.0_O3.drop_3500M.length_250M.champsimtrace.xz
Heartbeat CPU 0 instructions: 750000002 cycles: 627394301 heartbeat IPC: 1.15409 cumulative IPC: 1.14617 (Simulation time: 4 hr 10 min 6 sec) 
Heartbeat CPU 3 instructions: 610000001 cycles: 633318484 heartbeat IPC: 1.6611 cumulative IPC: 0.900126 (Simulation time: 4 hr 12 min 49 sec) 
Heartbeat CPU 1 instructions: 760000001 cycles: 636041651 heartbeat IPC: 1.15579 cumulative IPC: 1.14632 (Simulation time: 4 hr 14 min 5 sec) 
Heartbeat CPU 0 instructions: 760000001 cycles: 636046017 heartbeat IPC: 1.15584 cumulative IPC: 1.14631 (Simulation time: 4 hr 14 min 5 sec) 
Heartbeat CPU 3 instructions: 620000000 cycles: 642182753 heartbeat IPC: 1.12812 cumulative IPC: 0.903357 (Simulation time: 4 hr 16 min 7 sec) 
Heartbeat CPU 1 instructions: 770000000 cycles: 644716770 heartbeat IPC: 1.15272 cumulative IPC: 1.14641 (Simulation time: 4 hr 17 min 1 sec) 
Heartbeat CPU 0 instructions: 770000000 cycles: 644721696 heartbeat IPC: 1.15265 cumulative IPC: 1.1464 (Simulation time: 4 hr 17 min 1 sec) 
Heartbeat CPU 3 instructions: 630000003 cycles: 653278299 heartbeat IPC: 0.901263 cumulative IPC: 0.903321 (Simulation time: 4 hr 20 min 14 sec) 
Heartbeat CPU 1 instructions: 780000003 cycles: 653360521 heartbeat IPC: 1.15691 cumulative IPC: 1.14655 (Simulation time: 4 hr 20 min 16 sec) 
Heartbeat CPU 0 instructions: 780000003 cycles: 653365250 heartbeat IPC: 1.15693 cumulative IPC: 1.14654 (Simulation time: 4 hr 20 min 16 sec) 
Heartbeat CPU 3 instructions: 640000002 cycles: 659254190 heartbeat IPC: 1.67339 cumulative IPC: 0.910482 (Simulation time: 4 hr 22 min 52 sec) 
Heartbeat CPU 1 instructions: 790000000 cycles: 662016547 heartbeat IPC: 1.15526 cumulative IPC: 1.14666 (Simulation time: 4 hr 24 min 9 sec) 
Heartbeat CPU 0 instructions: 790000000 cycles: 662021394 heartbeat IPC: 1.15525 cumulative IPC: 1.14666 (Simulation time: 4 hr 24 min 9 sec) 
Heartbeat CPU 3 instructions: 650000000 cycles: 665281797 heartbeat IPC: 1.65903 cumulative IPC: 0.917438 (Simulation time: 4 hr 25 min 40 sec) 
Heartbeat CPU 1 instructions: 800000003 cycles: 670660247 heartbeat IPC: 1.15691 cumulative IPC: 1.1468 (Simulation time: 4 hr 27 min 53 sec) 
Heartbeat CPU 0 instructions: 800000003 cycles: 670664573 heartbeat IPC: 1.15698 cumulative IPC: 1.14679 (Simulation time: 4 hr 27 min 53 sec) 
Heartbeat CPU 2 instructions: 170000001 cycles: 672080500 heartbeat IPC: 0.163132 cumulative IPC: 0.180659 (Simulation time: 4 hr 28 min 22 sec) 
Heartbeat CPU 3 instructions: 660000000 cycles: 674175959 heartbeat IPC: 1.12433 cumulative IPC: 0.920237 (Simulation time: 4 hr 29 min 4 sec) 
Heartbeat CPU 1 instructions: 810000002 cycles: 679301066 heartbeat IPC: 1.1573 cumulative IPC: 1.14694 (Simulation time: 4 hr 30 min 42 sec) 
Heartbeat CPU 0 instructions: 810000002 cycles: 679306907 heartbeat IPC: 1.15709 cumulative IPC: 1.14693 (Simulation time: 4 hr 30 min 42 sec) 
Heartbeat CPU 3 instructions: 670000000 cycles: 687560882 heartbeat IPC: 0.747109 cumulative IPC: 0.916783 (Simulation time: 4 hr 33 min 39 sec) 
Heartbeat CPU 1 instructions: 820000000 cycles: 687970219 heartbeat IPC: 1.15351 cumulative IPC: 1.14702 (Simulation time: 4 hr 33 min 49 sec) 
Heartbeat CPU 0 instructions: 820000000 cycles: 687976454 heartbeat IPC: 1.15346 cumulative IPC: 1.14701 (Simulation time: 4 hr 33 min 49 sec) 
Heartbeat CPU 1 instructions: 830000002 cycles: 696601342 heartbeat IPC: 1.1586 cumulative IPC: 1.14717 (Simulation time: 4 hr 37 min 8 sec) 
Heartbeat CPU 0 instructions: 830000002 cycles: 696607590 heartbeat IPC: 1.1586 cumulative IPC: 1.14716 (Simulation time: 4 hr 37 min 8 sec) 
Heartbeat CPU 3 instructions: 680000002 cycles: 699207161 heartbeat IPC: 0.858644 cumulative IPC: 0.915791 (Simulation time: 4 hr 38 min 9 sec) 
Heartbeat CPU 1 instructions: 840000000 cycles: 705270457 heartbeat IPC: 1.15352 cumulative IPC: 1.14725 (Simulation time: 4 hr 40 min 36 sec) 
Heartbeat CPU 0 instructions: 840000000 cycles: 705276134 heartbeat IPC: 1.1536 cumulative IPC: 1.14724 (Simulation time: 4 hr 40 min 36 sec) 
Heartbeat CPU 3 instructions: 690000001 cycles: 710786705 heartbeat IPC: 0.863592 cumulative IPC: 0.91492 (Simulation time: 4 hr 42 min 42 sec) 
Heartbeat CPU 1 instructions: 850000001 cycles: 713923189 heartbeat IPC: 1.1557 cumulative IPC: 1.14735 (Simulation time: 4 hr 43 min 55 sec) 
Heartbeat CPU 0 instructions: 850000001 cycles: 713929910 heartbeat IPC: 1.15557 cumulative IPC: 1.14734 (Simulation time: 4 hr 43 min 56 sec) 
Heartbeat CPU 2 instructions: 180000002 cycles: 716300952 heartbeat IPC: 0.22614 cumulative IPC: 0.183533 (Simulation time: 4 hr 44 min 50 sec) 
Heartbeat CPU 3 instructions: 700000000 cycles: 722380017 heartbeat IPC: 0.862566 cumulative IPC: 0.91406 (Simulation time: 4 hr 47 min 3 sec) 
Heartbeat CPU 1 instructions: 860000000 cycles: 722587673 heartbeat IPC: 1.15414 cumulative IPC: 1.14744 (Simulation time: 4 hr 47 min 8 sec) 
Heartbeat CPU 0 instructions: 860000000 cycles: 722596133 heartbeat IPC: 1.15391 cumulative IPC: 1.14742 (Simulation time: 4 hr 47 min 8 sec) 
Heartbeat CPU 1 instructions: 870000003 cycles: 731276289 heartbeat IPC: 1.15093 cumulative IPC: 1.14748 (Simulation time: 4 hr 50 min 23 sec) 
Heartbeat CPU 0 instructions: 870000003 cycles: 731283100 heartbeat IPC: 1.15115 cumulative IPC: 1.14747 (Simulation time: 4 hr 50 min 23 sec) 
Heartbeat CPU 3 instructions: 710000003 cycles: 734403447 heartbeat IPC: 0.83171 cumulative IPC: 0.912681 (Simulation time: 4 hr 51 min 38 sec) 
Heartbeat CPU 1 instructions: 880000000 cycles: 739978681 heartbeat IPC: 1.14911 cumulative IPC: 1.1475 (Simulation time: 4 hr 53 min 52 sec) 
Heartbeat CPU 0 instructions: 880000000 cycles: 739984908 heartbeat IPC: 1.14919 cumulative IPC: 1.14749 (Simulation time: 4 hr 53 min 52 sec) 
Heartbeat CPU 3 instructions: 720000001 cycles: 745570642 heartbeat IPC: 0.89548 cumulative IPC: 0.912417 (Simulation time: 4 hr 56 min 4 sec) 
Heartbeat CPU 1 instructions: 890000002 cycles: 748675791 heartbeat IPC: 1.14981 cumulative IPC: 1.14753 (Simulation time: 4 hr 57 min 20 sec) 
Heartbeat CPU 0 instructions: 890000002 cycles: 748681637 heartbeat IPC: 1.14986 cumulative IPC: 1.14752 (Simulation time: 4 hr 57 min 21 sec) 
Heartbeat CPU 3 instructions: 730000001 cycles: 756730580 heartbeat IPC: 0.896062 cumulative IPC: 0.91217 (Simulation time: 5 hr 0 min 32 sec) 
Heartbeat CPU 1 instructions: 900000001 cycles: 757361675 heartbeat IPC: 1.15129 cumulative IPC: 1.14757 (Simulation time: 5 hr 0 min 47 sec) 
Heartbeat CPU 0 instructions: 900000001 cycles: 757367669 heartbeat IPC: 1.15127 cumulative IPC: 1.14756 (Simulation time: 5 hr 0 min 47 sec) 
Heartbeat CPU 2 instructions: 190000000 cycles: 761667549 heartbeat IPC: 0.220426 cumulative IPC: 0.18578 (Simulation time: 5 hr 2 min 31 sec) 
Heartbeat CPU 1 instructions: 910000000 cycles: 766052819 heartbeat IPC: 1.1506 cumulative IPC: 1.14761 (Simulation time: 5 hr 4 min 13 sec) 
Heartbeat CPU 0 instructions: 910000000 cycles: 766059880 heartbeat IPC: 1.15046 cumulative IPC: 1.1476 (Simulation time: 5 hr 4 min 13 sec) 
Heartbeat CPU 3 instructions: 740000003 cycles: 768955760 heartbeat IPC: 0.817984 cumulative IPC: 0.91064 (Simulation time: 5 hr 5 min 13 sec) 
Heartbeat CPU 1 instructions: 920000001 cycles: 774656576 heartbeat IPC: 1.16228 cumulative IPC: 1.14777 (Simulation time: 5 hr 7 min 15 sec) 
Heartbeat CPU 0 instructions: 920000001 cycles: 774664547 heartbeat IPC: 1.16216 cumulative IPC: 1.14776 (Simulation time: 5 hr 7 min 15 sec) 
Heartbeat CPU 3 instructions: 750000001 cycles: 781199107 heartbeat IPC: 0.81677 cumulative IPC: 0.909137 (Simulation time: 5 hr 9 min 38 sec) 
Heartbeat CPU 1 instructions: 930000001 cycles: 783340025 heartbeat IPC: 1.15162 cumulative IPC: 1.14782 (Simulation time: 5 hr 10 min 25 sec) 
Heartbeat CPU 0 instructions: 930000001 cycles: 783347756 heartbeat IPC: 1.15165 cumulative IPC: 1.1478 (Simulation time: 5 hr 10 min 25 sec) 
Heartbeat CPU 1 instructions: 940000002 cycles: 792076588 heartbeat IPC: 1.14461 cumulative IPC: 1.14778 (Simulation time: 5 hr 13 min 34 sec) 
Heartbeat CPU 0 instructions: 940000002 cycles: 792083642 heartbeat IPC: 1.1447 cumulative IPC: 1.14777 (Simulation time: 5 hr 13 min 34 sec) 
Heartbeat CPU 3 instructions: 760000002 cycles: 793552335 heartbeat IPC: 0.809505 cumulative IPC: 0.907552 (Simulation time: 5 hr 14 min 6 sec) 
Heartbeat CPU 1 instructions: 950000000 cycles: 800836080 heartbeat IPC: 1.14162 cumulative IPC: 1.14771 (Simulation time: 5 hr 16 min 48 sec) 
Heartbeat CPU 0 instructions: 950000000 cycles: 800843053 heartbeat IPC: 1.14163 cumulative IPC: 1.1477 (Simulation time: 5 hr 16 min 48 sec) 
Heartbeat CPU 2 instructions: 200000003 cycles: 804478680 heartbeat IPC: 0.233584 cumulative IPC: 0.188378 (Simulation time: 5 hr 18 min 7 sec) 
Heartbeat CPU 3 instructions: 770000000 cycles: 805849296 heartbeat IPC: 0.813209 cumulative IPC: 0.906082 (Simulation time: 5 hr 18 min 35 sec) 
Heartbeat CPU 1 instructions: 960000000 cycles: 809572116 heartbeat IPC: 1.14468 cumulative IPC: 1.14768 (Simulation time: 5 hr 19 min 55 sec) 
Heartbeat CPU 0 instructions: 960000000 cycles: 809578859 heartbeat IPC: 1.14471 cumulative IPC: 1.14767 (Simulation time: 5 hr 19 min 55 sec) 
Heartbeat CPU 3 instructions: 780000000 cycles: 818194743 heartbeat IPC: 0.810015 cumulative IPC: 0.904603 (Simulation time: 5 hr 23 min 0 sec) 
Heartbeat CPU 1 instructions: 970000002 cycles: 818390794 heartbeat IPC: 1.13396 cumulative IPC: 1.14753 (Simulation time: 5 hr 23 min 5 sec) 
Heartbeat CPU 0 instructions: 970000002 cycles: 818397544 heartbeat IPC: 1.13396 cumulative IPC: 1.14752 (Simulation time: 5 hr 23 min 5 sec) 
Heartbeat CPU 1 instructions: 980000000 cycles: 827109506 heartbeat IPC: 1.14696 cumulative IPC: 1.14752 (Simulation time: 5 hr 26 min 20 sec) 
Heartbeat CPU 0 instructions: 980000000 cycles: 827116172 heartbeat IPC: 1.14697 cumulative IPC: 1.14751 (Simulation time: 5 hr 26 min 20 sec) 
Heartbeat CPU 3 instructions: 790000000 cycles: 830644418 heartbeat IPC: 0.803234 cumulative IPC: 0.903052 (Simulation time: 5 hr 27 min 36 sec) 
Heartbeat CPU 1 instructions: 990000000 cycles: 835809916 heartbeat IPC: 1.14937 cumulative IPC: 1.14754 (Simulation time: 5 hr 29 min 30 sec) 
Heartbeat CPU 0 instructions: 990000000 cycles: 835816006 heartbeat IPC: 1.14945 cumulative IPC: 1.14753 (Simulation time: 5 hr 29 min 30 sec) 
Heartbeat CPU 3 instructions: 800000001 cycles: 842910711 heartbeat IPC: 0.815242 cumulative IPC: 0.901749 (Simulation time: 5 hr 32 min 2 sec) 
Heartbeat CPU 2 instructions: 210000002 cycles: 844467627 heartbeat IPC: 0.250069 cumulative IPC: 0.191358 (Simulation time: 5 hr 32 min 39 sec) 
*** Reached end of trace for Core: 1 Repeating trace: ./traces/ligra/ligra_PageRankDelta.com-lj.ungraph.gcc_6.3.0_O3.drop_3500M.length_250M.champsimtrace.xz
Heartbeat CPU 1 instructions: 1000000001 cycles: 844472416 heartbeat IPC: 1.1544 cumulative IPC: 1.14761 (Simulation time: 5 hr 32 min 39 sec) 
*** Reached end of trace for Core: 0 Repeating trace: ./traces/ligra/ligra_PageRankDelta.com-lj.ungraph.gcc_6.3.0_O3.drop_3500M.length_250M.champsimtrace.xz
Heartbeat CPU 0 instructions: 1000000001 cycles: 844478402 heartbeat IPC: 1.15442 cumulative IPC: 1.1476 (Simulation time: 5 hr 32 min 39 sec) 
Heartbeat CPU 1 instructions: 1010000003 cycles: 853122064 heartbeat IPC: 1.15612 cumulative IPC: 1.1477 (Simulation time: 5 hr 35 min 55 sec) 
Heartbeat CPU 0 instructions: 1010000003 cycles: 853127870 heartbeat IPC: 1.15614 cumulative IPC: 1.14769 (Simulation time: 5 hr 35 min 55 sec) 
Heartbeat CPU 3 instructions: 810000000 cycles: 855282524 heartbeat IPC: 0.808289 cumulative IPC: 0.90037 (Simulation time: 5 hr 36 min 51 sec) 
Heartbeat CPU 2 instructions: 220000000 cycles: 861548649 heartbeat IPC: 0.585445 cumulative IPC: 0.199325 (Simulation time: 5 hr 39 min 36 sec) 
Heartbeat CPU 1 instructions: 1020000002 cycles: 861796522 heartbeat IPC: 1.15281 cumulative IPC: 1.14775 (Simulation time: 5 hr 39 min 42 sec) 
Heartbeat CPU 0 instructions: 1020000002 cycles: 861802602 heartbeat IPC: 1.15277 cumulative IPC: 1.14774 (Simulation time: 5 hr 39 min 42 sec) 
Heartbeat CPU 3 instructions: 820000002 cycles: 867963105 heartbeat IPC: 0.788608 cumulative IPC: 0.898705 (Simulation time: 5 hr 42 min 18 sec) 
Heartbeat CPU 1 instructions: 1030000001 cycles: 870438822 heartbeat IPC: 1.1571 cumulative IPC: 1.14785 (Simulation time: 5 hr 43 min 25 sec) 
Heartbeat CPU 0 instructions: 1030000001 cycles: 870444794 heartbeat IPC: 1.15711 cumulative IPC: 1.14784 (Simulation time: 5 hr 43 min 25 sec) 
Heartbeat CPU 2 instructions: 230000002 cycles: 873510969 heartbeat IPC: 0.835958 cumulative IPC: 0.208213 (Simulation time: 5 hr 44 min 44 sec) 
Heartbeat CPU 1 instructions: 1040000000 cycles: 879091090 heartbeat IPC: 1.15577 cumulative IPC: 1.14793 (Simulation time: 5 hr 47 min 9 sec) 
Heartbeat CPU 0 instructions: 1040000000 cycles: 879097645 heartbeat IPC: 1.15569 cumulative IPC: 1.14792 (Simulation time: 5 hr 47 min 9 sec) 
Heartbeat CPU 3 instructions: 830000001 cycles: 880222569 heartbeat IPC: 0.815696 cumulative IPC: 0.897527 (Simulation time: 5 hr 47 min 38 sec) 
Heartbeat CPU 2 instructions: 240000002 cycles: 885377615 heartbeat IPC: 0.842698 cumulative IPC: 0.21688 (Simulation time: 5 hr 49 min 47 sec) 
Heartbeat CPU 1 instructions: 1050000003 cycles: 887735111 heartbeat IPC: 1.15687 cumulative IPC: 1.14802 (Simulation time: 5 hr 50 min 50 sec) 
Heartbeat CPU 0 instructions: 1050000003 cycles: 887742261 heartbeat IPC: 1.15679 cumulative IPC: 1.14801 (Simulation time: 5 hr 50 min 50 sec) 
Heartbeat CPU 3 instructions: 840000000 cycles: 893232021 heartbeat IPC: 0.768672 cumulative IPC: 0.895614 (Simulation time: 5 hr 53 min 8 sec) 
Heartbeat CPU 1 instructions: 1060000002 cycles: 896375760 heartbeat IPC: 1.15732 cumulative IPC: 1.14811 (Simulation time: 5 hr 54 min 25 sec) 
Heartbeat CPU 0 instructions: 1060000002 cycles: 896383740 heartbeat IPC: 1.15721 cumulative IPC: 1.1481 (Simulation time: 5 hr 54 min 25 sec) 
*** Reached end of trace for Core: 2 Repeating trace: ./traces/ligra/ligra_PageRank.com-lj.ungraph.gcc_6.3.0_O3.drop_79500M.length_250M.champsimtrace.xz
Heartbeat CPU 2 instructions: 250000002 cycles: 897645341 heartbeat IPC: 0.815147 cumulative IPC: 0.225211 (Simulation time: 5 hr 54 min 58 sec) 
Finished CPU 2 instructions: 200000002 cycles: 888277126 cumulative IPC: 0.225155 (Simulation time: 5 hr 57 min 26 sec) 

ChampSim completed all CPUs

Total Simulation Statistics (not including warmup)

CPU 0 cumulative IPC: 1.14815 instructions: 1019874580 cycles: 888277125
ITLB TOTAL     ACCESS:  169208624  HIT:  169208624  MISS:          0  HIT %:        100  MISS %:          0   MPKI: 0
ITLB LOAD      ACCESS:          0  HIT:          0  MISS:          0  HIT %:       -nan  MISS %:       -nan   MPKI: 0
ITLB RFO       ACCESS:          0  HIT:          0  MISS:          0  HIT %:       -nan  MISS %:       -nan   MPKI: 0
ITLB PREFETCH  ACCESS:          0  HIT:          0  MISS:          0  HIT %:       -nan  MISS %:       -nan   MPKI: 0
ITLB WRITEBACK ACCESS:          0  HIT:          0  MISS:          0  HIT %:       -nan  MISS %:       -nan   MPKI: 0
DTLB TOTAL     ACCESS:  172609367  HIT:  172552359  MISS:      57008  HIT %:     99.967  MISS %:  0.0330272   MPKI: 0.0558971
DTLB LOAD      ACCESS:          0  HIT:          0  MISS:          0  HIT %:       -nan  MISS %:       -nan   MPKI: 0
DTLB RFO       ACCESS:          0  HIT:          0  MISS:          0  HIT %:       -nan  MISS %:       -nan   MPKI: 0
DTLB PREFETCH  ACCESS:          0  HIT:          0  MISS:          0  HIT %:       -nan  MISS %:       -nan   MPKI: 0
DTLB WRITEBACK ACCESS:          0  HIT:          0  MISS:          0  HIT %:       -nan  MISS %:       -nan   MPKI: 0
STLB TOTAL     ACCESS:   63572247  HIT:   63515239  MISS:      57008  HIT %:    99.9103  MISS %:  0.0896744   MPKI: 0.0558971
STLB LOAD      ACCESS:          0  HIT:          0  MISS:          0  HIT %:       -nan  MISS %:       -nan   MPKI: 0
STLB RFO       ACCESS:          0  HIT:          0  MISS:          0  HIT %:       -nan  MISS %:       -nan   MPKI: 0
STLB PREFETCH  ACCESS:          0  HIT:          0  MISS:          0  HIT %:       -nan  MISS %:       -nan   MPKI: 0
STLB WRITEBACK ACCESS:          0  HIT:          0  MISS:          0  HIT %:       -nan  MISS %:       -nan   MPKI: 0
L1D TOTAL     ACCESS:  396223498  HIT:  392575408  MISS:    3648090  HIT %:    99.0793  MISS %:   0.920715   MPKI: 3.577
L1D LOAD      ACCESS:   63813751  HIT:   63807454  MISS:       6297  HIT %:    99.9901  MISS %: 0.00986778   MPKI: 0.00617429
L1D RFO       ACCESS:   37844263  HIT:   36020249  MISS:    1824014  HIT %:    95.1802  MISS %:    4.81979   MPKI: 1.78847
L1D PREFETCH  ACCESS:  294565484  HIT:  292747705  MISS:    1817779  HIT %:    99.3829  MISS %:   0.617105   MPKI: 1.78236
L1D WRITEBACK ACCESS:          0  HIT:          0  MISS:          0  HIT %:       -nan  MISS %:       -nan   MPKI: 0
L1I TOTAL     ACCESS:  169208624  HIT:  169208624  MISS:          0  HIT %:        100  MISS %:          0   MPKI: 0
L1I LOAD      ACCESS:  169208624  HIT:  169208624  MISS:          0  HIT %:        100  MISS %:          0   MPKI: 0
L1I RFO       ACCESS:          0  HIT:          0  MISS:          0  HIT %:       -nan  MISS %:       -nan   MPKI: 0
L1I PREFETCH  ACCESS:          0  HIT:          0  MISS:          0  HIT %:       -nan  MISS %:       -nan   MPKI: 0
L1I WRITEBACK ACCESS:          0  HIT:          0  MISS:          0  HIT %:       -nan  MISS %:       -nan   MPKI: 0
L2C TOTAL     ACCESS:    8454739  HIT:    4634044  MISS:    3820695  HIT %:      54.81  MISS %:      45.19   MPKI: 3.74624
L2C LOAD      ACCESS:       2839  HIT:          0  MISS:       2839  HIT %:          0  MISS %:        100   MPKI: 0.00278368
L2C RFO       ACCESS:    1824014  HIT:          4  MISS:    1824010  HIT %: 0.000219297  MISS %:    99.9998   MPKI: 1.78847
L2C PREFETCH  ACCESS:    3754459  HIT:    1933228  MISS:    1821231  HIT %:    51.4915  MISS %:    48.5085   MPKI: 1.78574
L2C WRITEBACK ACCESS:    1824014  HIT:    1658594  MISS:     165420  HIT %:     90.931  MISS %:    9.06901   MPKI: 0.162196
PSCL5 TOTAL     ACCESS:    1049413  HIT:    1049413  MISS:          0  HIT %:        100  MISS %:          0   MPKI: 0
PSCL5 LOAD      ACCESS:          0  HIT:          0  MISS:          0  HIT %:       -nan  MISS %:       -nan   MPKI: 0
PSCL5 RFO       ACCESS:          0  HIT:          0  MISS:          0  HIT %:       -nan  MISS %:       -nan   MPKI: 0
PSCL5 PREFETCH  ACCESS:          0  HIT:          0  MISS:          0  HIT %:       -nan  MISS %:       -nan   MPKI: 0
PSCL5 WRITEBACK ACCESS:          0  HIT:          0  MISS:          0  HIT %:       -nan  MISS %:       -nan   MPKI: 0
PSCL4 TOTAL     ACCESS:    1049413  HIT:    1049413  MISS:          0  HIT %:        100  MISS %:          0   MPKI: 0
PSCL4 LOAD      ACCESS:          0  HIT:          0  MISS:          0  HIT %:       -nan  MISS %:       -nan   MPKI: 0
PSCL4 RFO       ACCESS:          0  HIT:          0  MISS:          0  HIT %:       -nan  MISS %:       -nan   MPKI: 0
PSCL4 PREFETCH  ACCESS:          0  HIT:          0  MISS:          0  HIT %:       -nan  MISS %:       -nan   MPKI: 0
PSCL4 WRITEBACK ACCESS:          0  HIT:          0  MISS:          0  HIT %:       -nan  MISS %:       -nan   MPKI: 0
PSCL3 TOTAL     ACCESS:    1049413  HIT:    1049413  MISS:          0  HIT %:        100  MISS %:          0   MPKI: 0
PSCL3 LOAD      ACCESS:          0  HIT:          0  MISS:          0  HIT %:       -nan  MISS %:       -nan   MPKI: 0
PSCL3 RFO       ACCESS:          0  HIT:          0  MISS:          0  HIT %:       -nan  MISS %:       -nan   MPKI: 0
PSCL3 PREFETCH  ACCESS:          0  HIT:          0  MISS:          0  HIT %:       -nan  MISS %:       -nan   MPKI: 0
PSCL3 WRITEBACK ACCESS:          0  HIT:          0  MISS:          0  HIT %:       -nan  MISS %:       -nan   MPKI: 0
PSCL2 TOTAL     ACCESS:    1047551  HIT:    1047529  MISS:         22  HIT %:    99.9979  MISS %: 0.00210014   MPKI: 2.15713e-05
PSCL2 LOAD      ACCESS:          0  HIT:          0  MISS:          0  HIT %:       -nan  MISS %:       -nan   MPKI: 0
PSCL2 RFO       ACCESS:          0  HIT:          0  MISS:          0  HIT %:       -nan  MISS %:       -nan   MPKI: 0
PSCL2 PREFETCH  ACCESS:          0  HIT:          0  MISS:          0  HIT %:       -nan  MISS %:       -nan   MPKI: 0
PSCL2 WRITEBACK ACCESS:          0  HIT:          0  MISS:          0  HIT %:       -nan  MISS %:       -nan   MPKI: 0
LLC TOTAL     ACCESS:    5479313  HIT:    1494606  MISS:    3984707  HIT %:    27.2773  MISS %:    72.7227   MPKI: 3.90706
LLC LOAD      ACCESS:       2839  HIT:          0  MISS:       2839  HIT %:          0  MISS %:        100   MPKI: 0.00278368
LLC RFO       ACCESS:    1824010  HIT:          0  MISS:    1824010  HIT %:          0  MISS %:        100   MPKI: 1.78847
LLC PREFETCH  ACCESS:    1821231  HIT:          0  MISS:    1821231  HIT %:          0  MISS %:        100   MPKI: 1.78574
LLC WRITEBACK ACCESS:    1824038  HIT:    1494568  MISS:     329470  HIT %:    81.9373  MISS %:    18.0627   MPKI: 0.32305

RAW hits: 0
Loads Generated: 218095912
Loads sent to L1D: 218095910
Stores Generated: 116736551
Stores sent to L1D: 116736550

CPU 1 cumulative IPC: 1.14816 instructions: 1019883163 cycles: 888277125
ITLB TOTAL     ACCESS:  169210124  HIT:  169210124  MISS:          0  HIT %:        100  MISS %:          0   MPKI: 0
ITLB LOAD      ACCESS:          0  HIT:          0  MISS:          0  HIT %:       -nan  MISS %:       -nan   MPKI: 0
ITLB RFO       ACCESS:          0  HIT:          0  MISS:          0  HIT %:       -nan  MISS %:       -nan   MPKI: 0
ITLB PREFETCH  ACCESS:          0  HIT:          0  MISS:          0  HIT %:       -nan  MISS %:       -nan   MPKI: 0
ITLB WRITEBACK ACCESS:          0  HIT:          0  MISS:          0  HIT %:       -nan  MISS %:       -nan   MPKI: 0
DTLB TOTAL     ACCESS:  172609095  HIT:  172552087  MISS:      57008  HIT %:     99.967  MISS %:  0.0330272   MPKI: 0.0558966
DTLB LOAD      ACCESS:          0  HIT:          0  MISS:          0  HIT %:       -nan  MISS %:       -nan   MPKI: 0
DTLB RFO       ACCESS:          0  HIT:          0  MISS:          0  HIT %:       -nan  MISS %:       -nan   MPKI: 0
DTLB PREFETCH  ACCESS:          0  HIT:          0  MISS:          0  HIT %:       -nan  MISS %:       -nan   MPKI: 0
DTLB WRITEBACK ACCESS:          0  HIT:          0  MISS:          0  HIT %:       -nan  MISS %:       -nan   MPKI: 0
STLB TOTAL     ACCESS:   66306292  HIT:   66249256  MISS:      57036  HIT %:     99.914  MISS %:   0.086019   MPKI: 0.0559241
STLB LOAD      ACCESS:          0  HIT:          0  MISS:          0  HIT %:       -nan  MISS %:       -nan   MPKI: 0
STLB RFO       ACCESS:          0  HIT:          0  MISS:          0  HIT %:       -nan  MISS %:       -nan   MPKI: 0
STLB PREFETCH  ACCESS:          0  HIT:          0  MISS:          0  HIT %:       -nan  MISS %:       -nan   MPKI: 0
STLB WRITEBACK ACCESS:          0  HIT:          0  MISS:          0  HIT %:       -nan  MISS %:       -nan   MPKI: 0
L1D TOTAL     ACCESS:  405817318  HIT:  402169197  MISS:    3648121  HIT %:     99.101  MISS %:   0.898956   MPKI: 3.577
L1D LOAD      ACCESS:   63813889  HIT:   63807581  MISS:       6308  HIT %:    99.9901  MISS %:   0.009885   MPKI: 0.00618502
L1D RFO       ACCESS:   34057558  HIT:   32233528  MISS:    1824030  HIT %:    94.6443  MISS %:    5.35573   MPKI: 1.78847
L1D PREFETCH  ACCESS:  307945871  HIT:  306128088  MISS:    1817783  HIT %:    99.4097  MISS %:   0.590293   MPKI: 1.78234
L1D WRITEBACK ACCESS:          0  HIT:          0  MISS:          0  HIT %:       -nan  MISS %:       -nan   MPKI: 0
L1I TOTAL     ACCESS:  169210123  HIT:  169210123  MISS:          0  HIT %:        100  MISS %:          0   MPKI: 0
L1I LOAD      ACCESS:  169210123  HIT:  169210123  MISS:          0  HIT %:        100  MISS %:          0   MPKI: 0
L1I RFO       ACCESS:          0  HIT:          0  MISS:          0  HIT %:       -nan  MISS %:       -nan   MPKI: 0
L1I PREFETCH  ACCESS:          0  HIT:          0  MISS:          0  HIT %:       -nan  MISS %:       -nan   MPKI: 0
L1I WRITEBACK ACCESS:          0  HIT:          0  MISS:          0  HIT %:       -nan  MISS %:       -nan   MPKI: 0
L2C TOTAL     ACCESS:   13359504  HIT:    8902888  MISS:    4456616  HIT %:    66.6409  MISS %:    33.3591   MPKI: 4.36973
L2C LOAD      ACCESS:       2741  HIT:          0  MISS:       2741  HIT %:          0  MISS %:        100   MPKI: 0.00268756
L2C RFO       ACCESS:    1824030  HIT:          9  MISS:    1824021  HIT %: 0.000493413  MISS %:    99.9995   MPKI: 1.78846
L2C PREFETCH  ACCESS:    7867955  HIT:    5469260  MISS:    2398695  HIT %:    69.5131  MISS %:    30.4869   MPKI: 2.35193
L2C WRITEBACK ACCESS:    1824030  HIT:    1600182  MISS:     223848  HIT %:    87.7278  MISS %:    12.2722   MPKI: 0.219484
PSCL5 TOTAL     ACCESS:    1840748  HIT:    1840748  MISS:          0  HIT %:        100  MISS %:          0   MPKI: 0
PSCL5 LOAD      ACCESS:          0  HIT:          0  MISS:          0  HIT %:       -nan  MISS %:       -nan   MPKI: 0
PSCL5 RFO       ACCESS:          0  HIT:          0  MISS:          0  HIT %:       -nan  MISS %:       -nan   MPKI: 0
PSCL5 PREFETCH  ACCESS:          0  HIT:          0  MISS:          0  HIT %:       -nan  MISS %:       -nan   MPKI: 0
PSCL5 WRITEBACK ACCESS:          0  HIT:          0  MISS:          0  HIT %:       -nan  MISS %:       -nan   MPKI: 0
PSCL4 TOTAL     ACCESS:    1840748  HIT:    1840748  MISS:          0  HIT %:        100  MISS %:          0   MPKI: 0
PSCL4 LOAD      ACCESS:          0  HIT:          0  MISS:          0  HIT %:       -nan  MISS %:       -nan   MPKI: 0
PSCL4 RFO       ACCESS:          0  HIT:          0  MISS:          0  HIT %:       -nan  MISS %:       -nan   MPKI: 0
PSCL4 PREFETCH  ACCESS:          0  HIT:          0  MISS:          0  HIT %:       -nan  MISS %:       -nan   MPKI: 0
PSCL4 WRITEBACK ACCESS:          0  HIT:          0  MISS:          0  HIT %:       -nan  MISS %:       -nan   MPKI: 0
PSCL3 TOTAL     ACCESS:    1840748  HIT:    1840748  MISS:          0  HIT %:        100  MISS %:          0   MPKI: 0
PSCL3 LOAD      ACCESS:          0  HIT:          0  MISS:          0  HIT %:       -nan  MISS %:       -nan   MPKI: 0
PSCL3 RFO       ACCESS:          0  HIT:          0  MISS:          0  HIT %:       -nan  MISS %:       -nan   MPKI: 0
PSCL3 PREFETCH  ACCESS:          0  HIT:          0  MISS:          0  HIT %:       -nan  MISS %:       -nan   MPKI: 0
PSCL3 WRITEBACK ACCESS:          0  HIT:          0  MISS:          0  HIT %:       -nan  MISS %:       -nan   MPKI: 0
PSCL2 TOTAL     ACCESS:    1800279  HIT:    1800257  MISS:         22  HIT %:    99.9988  MISS %: 0.00122203   MPKI: 2.15711e-05
PSCL2 LOAD      ACCESS:          0  HIT:          0  MISS:          0  HIT %:       -nan  MISS %:       -nan   MPKI: 0
PSCL2 RFO       ACCESS:          0  HIT:          0  MISS:          0  HIT %:       -nan  MISS %:       -nan   MPKI: 0
PSCL2 PREFETCH  ACCESS:          0  HIT:          0  MISS:          0  HIT %:       -nan  MISS %:       -nan   MPKI: 0
PSCL2 WRITEBACK ACCESS:          0  HIT:          0  MISS:          0  HIT %:       -nan  MISS %:       -nan   MPKI: 0
LLC TOTAL     ACCESS:    6057526  HIT:    2152331  MISS:    3905195  HIT %:    35.5315  MISS %:    64.4685   MPKI: 3.82906
LLC LOAD      ACCESS:       2741  HIT:          0  MISS:       2741  HIT %:          0  MISS %:        100   MPKI: 0.00268756
LLC RFO       ACCESS:    1824021  HIT:          1  MISS:    1824020  HIT %: 5.48239e-05  MISS %:    99.9999   MPKI: 1.78846
LLC PREFETCH  ACCESS:    2398695  HIT:     573699  MISS:    1824996  HIT %:    23.9171  MISS %:    76.0829   MPKI: 1.78942
LLC WRITEBACK ACCESS:    1824758  HIT:    1578490  MISS:     246268  HIT %:    86.5041  MISS %:    13.4959   MPKI: 0.241467

RAW hits: 0
Loads Generated: 218097740
Loads sent to L1D: 218097740
Stores Generated: 116737533
Stores sent to L1D: 116737534

CPU 2 cumulative IPC: 0.225155 instructions: 200000002 cycles: 888277126
ITLB TOTAL     ACCESS:   26811211  HIT:   26811210  MISS:          1  HIT %:        100  MISS %: 3.72978e-06   MPKI: 5e-06
ITLB LOAD      ACCESS:          0  HIT:          0  MISS:          0  HIT %:       -nan  MISS %:       -nan   MPKI: 0
ITLB RFO       ACCESS:          0  HIT:          0  MISS:          0  HIT %:       -nan  MISS %:       -nan   MPKI: 0
ITLB PREFETCH  ACCESS:          0  HIT:          0  MISS:          0  HIT %:       -nan  MISS %:       -nan   MPKI: 0
ITLB WRITEBACK ACCESS:          0  HIT:          0  MISS:          0  HIT %:       -nan  MISS %:       -nan   MPKI: 0
DTLB TOTAL     ACCESS:   49453581  HIT:   40899397  MISS:    8554184  HIT %:    82.7026  MISS %:    17.2974   MPKI: 42.7709
DTLB LOAD      ACCESS:          0  HIT:          0  MISS:          0  HIT %:       -nan  MISS %:       -nan   MPKI: 0
DTLB RFO       ACCESS:          0  HIT:          0  MISS:          0  HIT %:       -nan  MISS %:       -nan   MPKI: 0
DTLB PREFETCH  ACCESS:          0  HIT:          0  MISS:          0  HIT %:       -nan  MISS %:       -nan   MPKI: 0
DTLB WRITEBACK ACCESS:          0  HIT:          0  MISS:          0  HIT %:       -nan  MISS %:       -nan   MPKI: 0
STLB TOTAL     ACCESS:   19321159  HIT:   13969202  MISS:    5351957  HIT %:       72.3  MISS %:       27.7   MPKI: 26.7598
STLB LOAD      ACCESS:          0  HIT:          0  MISS:          0  HIT %:       -nan  MISS %:       -nan   MPKI: 0
STLB RFO       ACCESS:          0  HIT:          0  MISS:          0  HIT %:       -nan  MISS %:       -nan   MPKI: 0
STLB PREFETCH  ACCESS:          0  HIT:          0  MISS:          0  HIT %:       -nan  MISS %:       -nan   MPKI: 0
STLB WRITEBACK ACCESS:          0  HIT:          0  MISS:          0  HIT %:       -nan  MISS %:       -nan   MPKI: 0
L1D TOTAL     ACCESS:  102822175  HIT:   92199202  MISS:   10622973  HIT %:    89.6686  MISS %:    10.3314   MPKI: 53.1149
L1D LOAD      ACCESS:   41282429  HIT:   32075712  MISS:    9206717  HIT %:    77.6982  MISS %:    22.3018   MPKI: 46.0336
L1D RFO       ACCESS:    9682451  HIT:    9682450  MISS:          1  HIT %:        100  MISS %: 1.0328e-05   MPKI: 5e-06
L1D PREFETCH  ACCESS:   51857295  HIT:   50441040  MISS:    1416255  HIT %:    97.2689  MISS %:    2.73106   MPKI: 7.08127
L1D WRITEBACK ACCESS:          0  HIT:          0  MISS:          0  HIT %:       -nan  MISS %:       -nan   MPKI: 0
L1I TOTAL     ACCESS:   27343297  HIT:   27343292  MISS:          5  HIT %:        100  MISS %: 1.8286e-05   MPKI: 2.5e-05
L1I LOAD      ACCESS:   27343297  HIT:   27343292  MISS:          5  HIT %:        100  MISS %: 1.8286e-05   MPKI: 2.5e-05
L1I RFO       ACCESS:          0  HIT:          0  MISS:          0  HIT %:       -nan  MISS %:       -nan   MPKI: 0
L1I PREFETCH  ACCESS:          0  HIT:          0  MISS:          0  HIT %:       -nan  MISS %:       -nan   MPKI: 0
L1I WRITEBACK ACCESS:          0  HIT:          0  MISS:          0  HIT %:       -nan  MISS %:       -nan   MPKI: 0
L2C TOTAL     ACCESS:   26243813  HIT:   14405708  MISS:   11838105  HIT %:    54.8918  MISS %:    45.1082   MPKI: 59.1905
L2C LOAD      ACCESS:    9196431  HIT:     581365  MISS:    8615066  HIT %:    6.32164  MISS %:    93.6784   MPKI: 43.0753
L2C RFO       ACCESS:          1  HIT:          0  MISS:          1  HIT %:          0  MISS %:        100   MPKI: 5e-06
L2C PREFETCH  ACCESS:    7873166  HIT:    6141226  MISS:    1731940  HIT %:     78.002  MISS %:     21.998   MPKI: 8.6597
L2C WRITEBACK ACCESS:     657378  HIT:     643833  MISS:      13545  HIT %:    97.9395  MISS %:    2.06046   MPKI: 0.067725
PSCL5 TOTAL     ACCESS:    6430159  HIT:    6430159  MISS:          0  HIT %:        100  MISS %:          0   MPKI: 0
PSCL5 LOAD      ACCESS:          0  HIT:          0  MISS:          0  HIT %:       -nan  MISS %:       -nan   MPKI: 0
PSCL5 RFO       ACCESS:          0  HIT:          0  MISS:          0  HIT %:       -nan  MISS %:       -nan   MPKI: 0
PSCL5 PREFETCH  ACCESS:          0  HIT:          0  MISS:          0  HIT %:       -nan  MISS %:       -nan   MPKI: 0
PSCL5 WRITEBACK ACCESS:          0  HIT:          0  MISS:          0  HIT %:       -nan  MISS %:       -nan   MPKI: 0
PSCL4 TOTAL     ACCESS:    6430159  HIT:    6430159  MISS:          0  HIT %:        100  MISS %:          0   MPKI: 0
PSCL4 LOAD      ACCESS:          0  HIT:          0  MISS:          0  HIT %:       -nan  MISS %:       -nan   MPKI: 0
PSCL4 RFO       ACCESS:          0  HIT:          0  MISS:          0  HIT %:       -nan  MISS %:       -nan   MPKI: 0
PSCL4 PREFETCH  ACCESS:          0  HIT:          0  MISS:          0  HIT %:       -nan  MISS %:       -nan   MPKI: 0
PSCL4 WRITEBACK ACCESS:          0  HIT:          0  MISS:          0  HIT %:       -nan  MISS %:       -nan   MPKI: 0
PSCL3 TOTAL     ACCESS:    6430159  HIT:    6430159  MISS:          0  HIT %:        100  MISS %:          0   MPKI: 0
PSCL3 LOAD      ACCESS:          0  HIT:          0  MISS:          0  HIT %:       -nan  MISS %:       -nan   MPKI: 0
PSCL3 RFO       ACCESS:          0  HIT:          0  MISS:          0  HIT %:       -nan  MISS %:       -nan   MPKI: 0
PSCL3 PREFETCH  ACCESS:          0  HIT:          0  MISS:          0  HIT %:       -nan  MISS %:       -nan   MPKI: 0
PSCL3 WRITEBACK ACCESS:          0  HIT:          0  MISS:          0  HIT %:       -nan  MISS %:       -nan   MPKI: 0
PSCL2 TOTAL     ACCESS:    5525755  HIT:    4341177  MISS:    1184578  HIT %:    78.5626  MISS %:    21.4374   MPKI: 5.92289
PSCL2 LOAD      ACCESS:          0  HIT:          0  MISS:          0  HIT %:       -nan  MISS %:       -nan   MPKI: 0
PSCL2 RFO       ACCESS:          0  HIT:          0  MISS:          0  HIT %:       -nan  MISS %:       -nan   MPKI: 0
PSCL2 PREFETCH  ACCESS:          0  HIT:          0  MISS:          0  HIT %:       -nan  MISS %:       -nan   MPKI: 0
PSCL2 WRITEBACK ACCESS:          0  HIT:          0  MISS:          0  HIT %:       -nan  MISS %:       -nan   MPKI: 0
LLC TOTAL     ACCESS:   12481967  HIT:    3286217  MISS:    9195750  HIT %:    26.3277  MISS %:    73.6723   MPKI: 45.9787
LLC LOAD      ACCESS:    8494922  HIT:    1166362  MISS:    7328560  HIT %:    13.7301  MISS %:    86.2699   MPKI: 36.6428
LLC RFO       ACCESS:          1  HIT:          0  MISS:          1  HIT %:          0  MISS %:        100   MPKI: 5e-06
LLC PREFETCH  ACCESS:    1852084  HIT:       9674  MISS:    1842410  HIT %:   0.522331  MISS %:    99.4777   MPKI: 9.21205
LLC WRITEBACK ACCESS:     657407  HIT:     652349  MISS:       5058  HIT %:    99.2306  MISS %:   0.769386   MPKI: 0.02529

RAW hits: 4234584
Loads Generated: 69886913
Loads sent to L1D: 65652336
Stores Generated: 10632598
Stores sent to L1D: 10632597

CPU 3 cumulative IPC: 0.894562 instructions: 794618759 cycles: 888277126
ITLB TOTAL     ACCESS:  124052182  HIT:  124051647  MISS:        535  HIT %:    99.9996  MISS %: 0.00043127   MPKI: 0.000673279
ITLB LOAD      ACCESS:          0  HIT:          0  MISS:          0  HIT %:       -nan  MISS %:       -nan   MPKI: 0
ITLB RFO       ACCESS:          0  HIT:          0  MISS:          0  HIT %:       -nan  MISS %:       -nan   MPKI: 0
ITLB PREFETCH  ACCESS:          0  HIT:          0  MISS:          0  HIT %:       -nan  MISS %:       -nan   MPKI: 0
ITLB WRITEBACK ACCESS:          0  HIT:          0  MISS:          0  HIT %:       -nan  MISS %:       -nan   MPKI: 0
DTLB TOTAL     ACCESS:  172240351  HIT:  171641789  MISS:     598562  HIT %:    99.6525  MISS %:   0.347516   MPKI: 0.753269
DTLB LOAD      ACCESS:          0  HIT:          0  MISS:          0  HIT %:       -nan  MISS %:       -nan   MPKI: 0
DTLB RFO       ACCESS:          0  HIT:          0  MISS:          0  HIT %:       -nan  MISS %:       -nan   MPKI: 0
DTLB PREFETCH  ACCESS:          0  HIT:          0  MISS:          0  HIT %:       -nan  MISS %:       -nan   MPKI: 0
DTLB WRITEBACK ACCESS:          0  HIT:          0  MISS:          0  HIT %:       -nan  MISS %:       -nan   MPKI: 0
STLB TOTAL     ACCESS:   42566447  HIT:   42480560  MISS:      85887  HIT %:    99.7982  MISS %:   0.201772   MPKI: 0.108086
STLB LOAD      ACCESS:          0  HIT:          0  MISS:          0  HIT %:       -nan  MISS %:       -nan   MPKI: 0
STLB RFO       ACCESS:          0  HIT:          0  MISS:          0  HIT %:       -nan  MISS %:       -nan   MPKI: 0
STLB PREFETCH  ACCESS:          0  HIT:          0  MISS:          0  HIT %:       -nan  MISS %:       -nan   MPKI: 0
STLB WRITEBACK ACCESS:          0  HIT:          0  MISS:          0  HIT %:       -nan  MISS %:       -nan   MPKI: 0
L1D TOTAL     ACCESS:  326185439  HIT:  313998004  MISS:   12187435  HIT %:    96.2636  MISS %:    3.73635   MPKI: 15.3375
L1D LOAD      ACCESS:  159801549  HIT:  155756272  MISS:    4045277  HIT %:    97.4686  MISS %:    2.53144   MPKI: 5.09084
L1D RFO       ACCESS:   33320103  HIT:   31196071  MISS:    2124032  HIT %:    93.6254  MISS %:    6.37463   MPKI: 2.67302
L1D PREFETCH  ACCESS:  133063787  HIT:  127045661  MISS:    6018126  HIT %:    95.4773  MISS %:    4.52274   MPKI: 7.5736
L1D WRITEBACK ACCESS:          0  HIT:          0  MISS:          0  HIT %:       -nan  MISS %:       -nan   MPKI: 0
L1I TOTAL     ACCESS:  152287424  HIT:  152256581  MISS:      30843  HIT %:    99.9797  MISS %:  0.0202531   MPKI: 0.0388148
L1I LOAD      ACCESS:  152287424  HIT:  152256581  MISS:      30843  HIT %:    99.9797  MISS %:  0.0202531   MPKI: 0.0388148
L1I RFO       ACCESS:          0  HIT:          0  MISS:          0  HIT %:       -nan  MISS %:       -nan   MPKI: 0
L1I PREFETCH  ACCESS:          0  HIT:          0  MISS:          0  HIT %:       -nan  MISS %:       -nan   MPKI: 0
L1I WRITEBACK ACCESS:          0  HIT:          0  MISS:          0  HIT %:       -nan  MISS %:       -nan   MPKI: 0
L2C TOTAL     ACCESS:   37137194  HIT:   27878603  MISS:    9258591  HIT %:    75.0692  MISS %:    24.9308   MPKI: 11.6516
L2C LOAD      ACCESS:    3767637  HIT:    2442705  MISS:    1324932  HIT %:    64.8339  MISS %:    35.1661   MPKI: 1.66738
L2C RFO       ACCESS:    2123791  HIT:     568256  MISS:    1555535  HIT %:    26.7567  MISS %:    73.2433   MPKI: 1.95759
L2C PREFETCH  ACCESS:   26603704  HIT:   20343587  MISS:    6260117  HIT %:     76.469  MISS %:     23.531   MPKI: 7.87814
L2C WRITEBACK ACCESS:    4319462  HIT:    4217350  MISS:     102112  HIT %:     97.636  MISS %:      2.364   MPKI: 0.128504
PSCL5 TOTAL     ACCESS:     282934  HIT:     282934  MISS:          0  HIT %:        100  MISS %:          0   MPKI: 0
PSCL5 LOAD      ACCESS:          0  HIT:          0  MISS:          0  HIT %:       -nan  MISS %:       -nan   MPKI: 0
PSCL5 RFO       ACCESS:          0  HIT:          0  MISS:          0  HIT %:       -nan  MISS %:       -nan   MPKI: 0
PSCL5 PREFETCH  ACCESS:          0  HIT:          0  MISS:          0  HIT %:       -nan  MISS %:       -nan   MPKI: 0
PSCL5 WRITEBACK ACCESS:          0  HIT:          0  MISS:          0  HIT %:       -nan  MISS %:       -nan   MPKI: 0
PSCL4 TOTAL     ACCESS:     282934  HIT:     282934  MISS:          0  HIT %:        100  MISS %:          0   MPKI: 0
PSCL4 LOAD      ACCESS:          0  HIT:          0  MISS:          0  HIT %:       -nan  MISS %:       -nan   MPKI: 0
PSCL4 RFO       ACCESS:          0  HIT:          0  MISS:          0  HIT %:       -nan  MISS %:       -nan   MPKI: 0
PSCL4 PREFETCH  ACCESS:          0  HIT:          0  MISS:          0  HIT %:       -nan  MISS %:       -nan   MPKI: 0
PSCL4 WRITEBACK ACCESS:          0  HIT:          0  MISS:          0  HIT %:       -nan  MISS %:       -nan   MPKI: 0
PSCL3 TOTAL     ACCESS:     282934  HIT:     282934  MISS:          0  HIT %:        100  MISS %:          0   MPKI: 0
PSCL3 LOAD      ACCESS:          0  HIT:          0  MISS:          0  HIT %:       -nan  MISS %:       -nan   MPKI: 0
PSCL3 RFO       ACCESS:          0  HIT:          0  MISS:          0  HIT %:       -nan  MISS %:       -nan   MPKI: 0
PSCL3 PREFETCH  ACCESS:          0  HIT:          0  MISS:          0  HIT %:       -nan  MISS %:       -nan   MPKI: 0
PSCL3 WRITEBACK ACCESS:          0  HIT:          0  MISS:          0  HIT %:       -nan  MISS %:       -nan   MPKI: 0
PSCL2 TOTAL     ACCESS:     243789  HIT:     243229  MISS:        560  HIT %:    99.7703  MISS %:   0.229707   MPKI: 0.00070474
PSCL2 LOAD      ACCESS:          0  HIT:          0  MISS:          0  HIT %:       -nan  MISS %:       -nan   MPKI: 0
PSCL2 RFO       ACCESS:          0  HIT:          0  MISS:          0  HIT %:       -nan  MISS %:       -nan   MPKI: 0
PSCL2 PREFETCH  ACCESS:          0  HIT:          0  MISS:          0  HIT %:       -nan  MISS %:       -nan   MPKI: 0
PSCL2 WRITEBACK ACCESS:          0  HIT:          0  MISS:          0  HIT %:       -nan  MISS %:       -nan   MPKI: 0
LLC TOTAL     ACCESS:   12542167  HIT:    5344989  MISS:    7197178  HIT %:    42.6162  MISS %:    57.3838   MPKI: 9.0574
LLC LOAD      ACCESS:     752386  HIT:     118647  MISS:     633739  HIT %:    15.7694  MISS %:    84.2306   MPKI: 0.797538
LLC RFO       ACCESS:    1553155  HIT:     318195  MISS:    1234960  HIT %:     20.487  MISS %:     79.513   MPKI: 1.55415
LLC PREFETCH  ACCESS:    6835029  HIT:    1663531  MISS:    5171498  HIT %:    24.3383  MISS %:    75.6617   MPKI: 6.50815
LLC WRITEBACK ACCESS:    3385702  HIT:    3242651  MISS:     143051  HIT %:    95.7748  MISS %:    4.22515   MPKI: 0.180025

RAW hits: 1684018
Loads Generated: 239890373
Loads sent to L1D: 238206354
Stores Generated: 40677865
Stores sent to L1D: 40677867

Region of Interest Statistics

CPU 0 cumulative IPC: 1.13375 instructions: 200000000 cycles: 176405458
ITLB TOTAL     ACCESS:   33182179  HIT:   33182179  MISS:          0  HIT %:        100  MISS %:          0   MPKI: 0
ITLB LOAD TRANSLATION ACCESS:   33182179  HIT:   33182179  MISS:          0  HIT %:        100  MISS %:          0   MPKI: 0
ITLB PREFETCH  REQUESTED:          0  ISSUED:          0  USEFUL:          0  USELESS:          0
ITLB USEFUL LOAD PREFETCHES:          0 PREFETCH ISSUED TO LOWER LEVEL:          0  ACCURACY: -nan
ITLB TIMELY PREFETCHES:          0 LATE PREFETCHES: 0 DROPPED PREFETCHES: 0
ITLB PREFETCHES SAME FILL-ORIGIN LEVEL: 0 DIFFERENT FILL-ORIGIN LEVEL: 0
ITLB AVERAGE MISS LATENCY: -nan cycles
ITLB RQ	ACCESS:  169208623	FORWARD:          0	MERGED:          0	TO_CACHE:  169208623

DTLB TOTAL     ACCESS:   33833833  HIT:   33822654  MISS:      11179  HIT %:     99.967  MISS %:  0.0330409   MPKI: 0.055895
DTLB LOAD TRANSLATION ACCESS:   33833833  HIT:   33822654  MISS:      11179  HIT %:     99.967  MISS %:  0.0330409   MPKI: 0.055895
DTLB PREFETCH  REQUESTED:          0  ISSUED:          0  USEFUL:          0  USELESS:          0
DTLB USEFUL LOAD PREFETCHES:          0 PREFETCH ISSUED TO LOWER LEVEL:          0  ACCURACY: -nan
DTLB TIMELY PREFETCHES:          0 LATE PREFETCHES: 0 DROPPED PREFETCHES: 0
DTLB PREFETCHES SAME FILL-ORIGIN LEVEL: 0 DIFFERENT FILL-ORIGIN LEVEL: 0
DTLB AVERAGE MISS LATENCY: 341.016 cycles
DTLB RQ	ACCESS:  180577263	FORWARD:          0	MERGED:    7738330	TO_CACHE:  172838933

STLB TOTAL     ACCESS:   10763065  HIT:   10751886  MISS:      11179  HIT %:    99.8961  MISS %:   0.103864   MPKI: 0.055895
STLB LOAD TRANSLATION ACCESS:      11179  HIT:          0  MISS:      11179  HIT %:          0  MISS %:        100   MPKI: 0.055895
STLB TRANSLATION FROM L1D PREFETCHER ACCESS:   10751886  HIT:   10751886  MISS:          0  HIT %:        100  MISS %:          0   MPKI: 0
STLB PREFETCH  REQUESTED:          0  ISSUED:          0  USEFUL:      22910  USELESS:          0
STLB USEFUL LOAD PREFETCHES:      22910 PREFETCH ISSUED TO LOWER LEVEL:          0  ACCURACY: inf
STLB TIMELY PREFETCHES:      22910 LATE PREFETCHES: 1033 DROPPED PREFETCHES: 991374
STLB PREFETCHES SAME FILL-ORIGIN LEVEL: 0 DIFFERENT FILL-ORIGIN LEVEL: 0
STLB AVERAGE MISS LATENCY: 463.418 cycles
[...]
L2C PREFETCHES SAME FILL-ORIGIN LEVEL: 919500 DIFFERENT FILL-ORIGIN LEVEL: 0
L2C AVERAGE MISS LATENCY: 353.438 cycles
L2C RQ	ACCESS:   17713268	FORWARD:          0	MERGED:          0	TO_CACHE:   17713268
L2C WQ	ACCESS:     657378	FORWARD:          0	MERGED:          0	TO_CACHE:     657378
L2C PQ	ACCESS:    9786820	FORWARD:          0	MERGED:      19563	TO_CACHE:    9767257

L2C Instructions Evicting Data 4
L2C Translations Evicting Data 1290592
L2C Data Evicting Data 9057161
L2C Instructions Evicting Instructions 0
L2C Translations Evicting Instructions 0
L2C Data Evicting Instructions 5
L2C Instructions Evicting Translations 1
L2C Translations Evicting Translations 186961
L2C Data Evicting Translations 1289836
L2C Dense regions hint from L2: 0
PSCL5 TOTAL     ACCESS:    6430159  HIT:    6430159  MISS:          0  HIT %:        100  MISS %:          0   MPKI: 0
PSCL5 LOAD TRANSLATION ACCESS:    5346901  HIT:    5346901  MISS:          0  HIT %:        100  MISS %:          0   MPKI: 0
PSCL5 TRANSLATION FROM L1D PREFETCHER ACCESS:    1083258  HIT:    1083258  MISS:          0  HIT %:        100  MISS %:          0   MPKI: 0
PSCL5 PREFETCH  REQUESTED:          0  ISSUED:          0  USEFUL:          0  USELESS:          0
PSCL5 USEFUL LOAD PREFETCHES:          0 PREFETCH ISSUED TO LOWER LEVEL:          0  ACCURACY: -nan
PSCL5 TIMELY PREFETCHES:          0 LATE PREFETCHES: 0 DROPPED PREFETCHES: 0
PSCL5 PREFETCHES SAME FILL-ORIGIN LEVEL: 0 DIFFERENT FILL-ORIGIN LEVEL: 0

PSCL4 TOTAL     ACCESS:    6430159  HIT:    6430159  MISS:          0  HIT %:        100  MISS %:          0   MPKI: 0
PSCL4 LOAD TRANSLATION ACCESS:    5346901  HIT:    5346901  MISS:          0  HIT %:        100  MISS %:          0   MPKI: 0
PSCL4 TRANSLATION FROM L1D PREFETCHER ACCESS:    1083258  HIT:    1083258  MISS:          0  HIT %:        100  MISS %:          0   MPKI: 0
PSCL4 PREFETCH  REQUESTED:          0  ISSUED:          0  USEFUL:          0  USELESS:          0
PSCL4 USEFUL LOAD PREFETCHES:          0 PREFETCH ISSUED TO LOWER LEVEL:          0  ACCURACY: -nan
PSCL4 TIMELY PREFETCHES:          0 LATE PREFETCHES: 0 DROPPED PREFETCHES: 0
PSCL4 PREFETCHES SAME FILL-ORIGIN LEVEL: 0 DIFFERENT FILL-ORIGIN LEVEL: 0

PSCL3 TOTAL     ACCESS:    6430159  HIT:    6430159  MISS:          0  HIT %:        100  MISS %:          0   MPKI: 0
PSCL3 LOAD TRANSLATION ACCESS:    5346901  HIT:    5346901  MISS:          0  HIT %:        100  MISS %:          0   MPKI: 0
PSCL3 TRANSLATION FROM L1D PREFETCHER ACCESS:    1083258  HIT:    1083258  MISS:          0  HIT %:        100  MISS %:          0   MPKI: 0
PSCL3 PREFETCH  REQUESTED:          0  ISSUED:          0  USEFUL:          0  USELESS:          0
PSCL3 USEFUL LOAD PREFETCHES:          0 PREFETCH ISSUED TO LOWER LEVEL:          0  ACCURACY: -nan
PSCL3 TIMELY PREFETCHES:          0 LATE PREFETCHES: 0 DROPPED PREFETCHES: 0
PSCL3 PREFETCHES SAME FILL-ORIGIN LEVEL: 0 DIFFERENT FILL-ORIGIN LEVEL: 0

PSCL2 TOTAL     ACCESS:    5525755  HIT:    4341177  MISS:    1184578  HIT %:    78.5626  MISS %:    21.4374   MPKI: 5.92289
PSCL2 LOAD TRANSLATION ACCESS:    5347017  HIT:    4162439  MISS:    1184578  HIT %:     77.846  MISS %:     22.154   MPKI: 5.92289
PSCL2 TRANSLATION FROM L1D PREFETCHER ACCESS:     178738  HIT:     178738  MISS:          0  HIT %:        100  MISS %:          0   MPKI: 0
PSCL2 PREFETCH  REQUESTED:          0  ISSUED:          0  USEFUL:          0  USELESS:          0
PSCL2 USEFUL LOAD PREFETCHES:          0 PREFETCH ISSUED TO LOWER LEVEL:          0  ACCURACY: -nan
PSCL2 TIMELY PREFETCHES:          0 LATE PREFETCHES: 0 DROPPED PREFETCHES: 0
PSCL2 PREFETCHES SAME FILL-ORIGIN LEVEL: 0 DIFFERENT FILL-ORIGIN LEVEL: 0

LLC TOTAL     ACCESS:   12481967  HIT:    3286217  MISS:    9195750  HIT %:    26.3277  MISS %:    73.6723   MPKI: 45.9787
LLC LOAD      ACCESS:    8494922  HIT:    1166362  MISS:    7328560  HIT %:    13.7301  MISS %:    86.2699   MPKI: 36.6428
LLC RFO       ACCESS:          1  HIT:          0  MISS:          1  HIT %:          0  MISS %:        100   MPKI: 5e-06
LLC PREFETCH  ACCESS:    1852084  HIT:       9674  MISS:    1842410  HIT %:   0.522331  MISS %:    99.4777   MPKI: 9.21205
LLC WRITEBACK ACCESS:     657407  HIT:     652349  MISS:       5058  HIT %:    99.2306  MISS %:   0.769386   MPKI: 0.02529
LLC LOAD TRANSLATION ACCESS:    1473406  HIT:    1457323  MISS:      16083  HIT %:    98.9084  MISS %:    1.09155   MPKI: 0.080415
LLC TRANSLATION FROM L1D PREFETCHER ACCESS:       4147  HIT:        509  MISS:       3638  HIT %:    12.2739  MISS %:    87.7261   MPKI: 0.01819
LLC PREFETCH  REQUESTED:          0  ISSUED:          0  USEFUL:     180226  USELESS:   10483947
LLC USEFUL LOAD PREFETCHES:     180226 PREFETCH ISSUED TO LOWER LEVEL:   10664064  ACCURACY: 1.69003
LLC TIMELY PREFETCHES:     180226 LATE PREFETCHES: 0 DROPPED PREFETCHES: 0
LLC PREFETCHES SAME FILL-ORIGIN LEVEL: 0 DIFFERENT FILL-ORIGIN LEVEL: 0
LLC AVERAGE MISS LATENCY: 1107.61 cycles
LLC RQ	ACCESS:   15962032	FORWARD:          0	MERGED:          0	TO_CACHE:   15962029
LLC WQ	ACCESS:    7691905	FORWARD:         14	MERGED:          0	TO_CACHE:    7691905
LLC PQ	ACCESS:   12907052	FORWARD:          0	MERGED:          0	TO_CACHE:   12907041

LLC Dense regions hint to LLC: 0

RAW hits: 4234584
Loads Generated: 69886913
Loads sent to L1D: 65652336
Stores Generated: 10632598
Stores sent to L1D: 10632597
Major fault: 0 Minor fault: 49890
Allocated PAGES: 90740

CPU 3 cumulative IPC: 0.886972 instructions: 200000002 cycles: 225486259
ITLB TOTAL     ACCESS:   30796418  HIT:   30796231  MISS:        187  HIT %:    99.9994  MISS %: 0.000607213   MPKI: 0.000935
ITLB LOAD TRANSLATION ACCESS:   30796418  HIT:   30796231  MISS:        187  HIT %:    99.9994  MISS %: 0.000607213   MPKI: 0.000935
ITLB PREFETCH  REQUESTED:          0  ISSUED:          0  USEFUL:          0  USELESS:          0
ITLB USEFUL LOAD PREFETCHES:          0 PREFETCH ISSUED TO LOWER LEVEL:          0  ACCURACY: -nan
ITLB TIMELY PREFETCHES:          0 LATE PREFETCHES: 0 DROPPED PREFETCHES: 0
ITLB PREFETCHES SAME FILL-ORIGIN LEVEL: 0 DIFFERENT FILL-ORIGIN LEVEL: 0
ITLB AVERAGE MISS LATENCY: 1076.59 cycles
ITLB RQ	ACCESS:  152303741	FORWARD:          0	MERGED:   28251385	TO_CACHE:  124052356

DTLB TOTAL     ACCESS:   41026468  HIT:   40855355  MISS:     171113  HIT %:    99.5829  MISS %:    0.41708   MPKI: 0.855565
DTLB LOAD TRANSLATION ACCESS:   41026468  HIT:   40855355  MISS:     171113  HIT %:    99.5829  MISS %:    0.41708   MPKI: 0.855565
DTLB PREFETCH  REQUESTED:          0  ISSUED:          0  USEFUL:          0  USELESS:          0
DTLB USEFUL LOAD PREFETCHES:          0 PREFETCH ISSUED TO LOWER LEVEL:          0  ACCURACY: -nan
DTLB TIMELY PREFETCHES:          0 LATE PREFETCHES: 0 DROPPED PREFETCHES: 0
DTLB PREFETCHES SAME FILL-ORIGIN LEVEL: 0 DIFFERENT FILL-ORIGIN LEVEL: 0
DTLB AVERAGE MISS LATENCY: 68.9525 cycles
DTLB RQ	ACCESS:  202482463	FORWARD:          0	MERGED:   30086695	TO_CACHE:  172395768

STLB TOTAL     ACCESS:    9932113  HIT:    9904918  MISS:      27195  HIT %:    99.7262  MISS %:   0.273809   MPKI: 0.135975
STLB LOAD TRANSLATION ACCESS:     171300  HIT:     159832  MISS:      11468  HIT %:    93.3053  MISS %:    6.69469   MPKI: 0.05734
STLB TRANSLATION FROM L1D PREFETCHER ACCESS:    9760813  HIT:    9745086  MISS:      15727  HIT %:    99.8389  MISS %:   0.161124   MPKI: 0.078635
STLB PREFETCH  REQUESTED:          0  ISSUED:          0  USEFUL:      55337  USELESS:        163
STLB USEFUL LOAD PREFETCHES:      55337 PREFETCH ISSUED TO LOWER LEVEL:          0  ACCURACY: inf
STLB TIMELY PREFETCHES:      55337 LATE PREFETCHES: 2679 DROPPED PREFETCHES: 196372
STLB PREFETCHES SAME FILL-ORIGIN LEVEL: 0 DIFFERENT FILL-ORIGIN LEVEL: 0
STLB AVERAGE MISS LATENCY: 454.938 cycles
STLB RQ	ACCESS:  167555315	FORWARD:          0	MERGED:  124772503	TO_CACHE:   42782812

STLB Hit, L1D data hit: 0
STLB Hit, L2C data hit: 0
STLB Hit, LLC data hit: 0
STLB Hit, LLC data miss: 0
STLB STLB hints to L2: 0
L1D TOTAL     ACCESS:   75107132  HIT:   71503591  MISS:    3603541  HIT %:    95.2021  MISS %:    4.79787   MPKI: 18.0177
L1D LOAD      ACCESS:   37059543  HIT:   35799713  MISS:    1259830  HIT %:    96.6005  MISS %:    3.39948   MPKI: 6.29915
L1D RFO       ACCESS:    8471057  HIT:    7773819  MISS:     697238  HIT %:    91.7692  MISS %:    8.23083   MPKI: 3.48619
L1D PREFETCH  ACCESS:   29576532  HIT:   27930059  MISS:    1646473  HIT %:    94.4332  MISS %:    5.56682   MPKI: 8.23236
L1D PREFETCH  REQUESTED:  504822838  ISSUED:  353945492  USEFUL:    5697547  USELESS:     320595
L1D USEFUL LOAD PREFETCHES:    5697547 PREFETCH ISSUED TO LOWER LEVEL:   32414563  ACCURACY: 17.5771
L1D TIMELY PREFETCHES:    5697547 LATE PREFETCHES: 308418 DROPPED PREFETCHES: 362161
L1D PREFETCHES SAME FILL-ORIGIN LEVEL: 6331577 DIFFERENT FILL-ORIGIN LEVEL: 26082986
L1D AVERAGE MISS LATENCY: 600.287 cycles
L1D RQ	ACCESS:  238206354	FORWARD:          0	MERGED:   76100187	TO_CACHE:  162015188
L1D WQ	ACCESS:   40677861	FORWARD:      91119	MERGED:     210586	TO_CACHE:   40467275
L1D PQ	ACCESS:  186989274	FORWARD:          0	MERGED:   20032916	TO_CACHE:  166956218

L1D UNIQUE REGIONS ACCESSED: 0
L1D REGIONS CONFLICTS: 0
L1D Cross Page Prefetch Requests: 22338796
L1D Same Page Prefetch Requests: 185467833
L1D ROI Sum of L1D PQ occupancy: 2450641394
L1D PREFETCHES PUSHED FROM L2C: 0
L1I TOTAL     ACCESS:   37688307  HIT:   37682259  MISS:       6048  HIT %:     99.984  MISS %:  0.0160474   MPKI: 0.03024
L1I LOAD      ACCESS:   37688307  HIT:   37682259  MISS:       6048  HIT %:     99.984  MISS %:  0.0160474   MPKI: 0.03024
L1I PREFETCH  REQUESTED:          0  ISSUED:          0  USEFUL:          0  USELESS:          0
L1I USEFUL LOAD PREFETCHES:          0 PREFETCH ISSUED TO LOWER LEVEL:          0  ACCURACY: -nan
L1I TIMELY PREFETCHES:          0 LATE PREFETCHES: 0 DROPPED PREFETCHES: 0
L1I PREFETCHES SAME FILL-ORIGIN LEVEL: 0 DIFFERENT FILL-ORIGIN LEVEL: 0
L1I AVERAGE MISS LATENCY: 1745.89 cycles
L1I RQ	ACCESS:  217279837	FORWARD:          0	MERGED:   64976096	TO_CACHE:  152303741

BTB TOTAL     ACCESS:    9076941  HIT:    9069742  MISS:       7199  HIT %:    99.9207  MISS %:  0.0793109   MPKI: 0.035995
BTB BRANCH_DIRECT_JUMP	ACCESS:     290845  HIT:     290754  MISS:         91
BTB BRANCH_INDIRECT	ACCESS:         13  HIT:          8  MISS:          5
BTB BRANCH_CONDITIONAL	ACCESS:    8186148  HIT:    8185379  MISS:        769
BTB BRANCH_DIRECT_CALL	ACCESS:     299968  HIT:     299518  MISS:        450
BTB BRANCH_INDIRECT_CALL	ACCESS:          0  HIT:          0  MISS:          0
BTB BRANCH_RETURN	ACCESS:     299967  HIT:     294083  MISS:       5884
BTB BRANCH_OTHER ACCESS:          0  HIT:          0  MISS:          0

L2C TOTAL     ACCESS:    9443548  HIT:    6636887  MISS:    2806661  HIT %:    70.2796  MISS %:    29.7204   MPKI: 14.0333
L2C LOAD      ACCESS:    1169722  HIT:     725698  MISS:     444024  HIT %:    62.0402  MISS %:    37.9598   MPKI: 2.22012
L2C DATA LOAD MPKI: 2.18988
L2C INSTRUCTION LOAD MPKI: 0.03024
L2C RFO       ACCESS:     697127  HIT:     142781  MISS:     554346  HIT %:    20.4813  MISS %:    79.5187   MPKI: 2.77173
L2C PREFETCH  ACCESS:    6145114  HIT:    4378988  MISS:    1766126  HIT %:    71.2597  MISS %:    28.7403   MPKI: 8.83063
L2C DATA PREFETCH MPKI: 8.83063
L2C INSTRUCTION PREFETCH MPKI: 0
L2C WRITEBACK ACCESS:    1363534  HIT:    1326281  MISS:      37253  HIT %:    97.2679  MISS %:    2.73209   MPKI: 0.186265
L2C LOAD TRANSLATION ACCESS:      10866  HIT:       8875  MISS:       1991  HIT %:    81.6768  MISS %:    18.3232   MPKI: 0.009955
L2C TRANSLATION FROM L1D PREFETCHER ACCESS:      57185  HIT:      54264  MISS:       2921  HIT %:     94.892  MISS %:    5.10798   MPKI: 0.014605
L2C PREFETCH  REQUESTED:          0  ISSUED:          0  USEFUL:    1814623  USELESS:    4458729
L2C USEFUL LOAD PREFETCHES:    1814623 PREFETCH ISSUED TO LOWER LEVEL:    6835040  ACCURACY: 26.5488
L2C TIMELY PREFETCHES:    1814623 LATE PREFETCHES: 574923 DROPPED PREFETCHES: 0
L2C PREFETCHES SAME FILL-ORIGIN LEVEL: 4406936 DIFFERENT FILL-ORIGIN LEVEL: 0
L2C AVERAGE MISS LATENCY: 1273.05 cycles
L2C RQ	ACCESS:    6214142	FORWARD:          0	MERGED:          0	TO_CACHE:    6214027
L2C WQ	ACCESS:    4319462	FORWARD:        390	MERGED:          0	TO_CACHE:    4319462
L2C PQ	ACCESS:   32239868	FORWARD:          0	MERGED:      99560	TO_CACHE:   32140033

L2C Instructions Evicting Data 26656
L2C Translations Evicting Data 15781
L2C Data Evicting Data 9071940
L2C Instructions Evicting Instructions 450
L2C Translations Evicting Instructions 72
L2C Data Evicting Instructions 25863
L2C Instructions Evicting Translations 77
L2C Translations Evicting Translations 42
L2C Data Evicting Translations 15598
L2C Dense regions hint from L2: 0
PSCL5 TOTAL     ACCESS:      67818  HIT:      67818  MISS:          0  HIT %:        100  MISS %:          0   MPKI: 0
PSCL5 LOAD TRANSLATION ACCESS:      10695  HIT:      10695  MISS:          0  HIT %:        100  MISS %:          0   MPKI: 0
PSCL5 TRANSLATION FROM L1D PREFETCHER ACCESS:      57123  HIT:      57123  MISS:          0  HIT %:        100  MISS %:          0   MPKI: 0
PSCL5 PREFETCH  REQUESTED:          0  ISSUED:          0  USEFUL:          0  USELESS:          0
PSCL5 USEFUL LOAD PREFETCHES:          0 PREFETCH ISSUED TO LOWER LEVEL:          0  ACCURACY: -nan
PSCL5 TIMELY PREFETCHES:          0 LATE PREFETCHES: 0 DROPPED PREFETCHES: 0
PSCL5 PREFETCHES SAME FILL-ORIGIN LEVEL: 0 DIFFERENT FILL-ORIGIN LEVEL: 0

PSCL4 TOTAL     ACCESS:      67818  HIT:      67818  MISS:          0  HIT %:        100  MISS %:          0   MPKI: 0
PSCL4 LOAD TRANSLATION ACCESS:      10695  HIT:      10695  MISS:          0  HIT %:        100  MISS %:          0   MPKI: 0
PSCL4 TRANSLATION FROM L1D PREFETCHER ACCESS:      57123  HIT:      57123  MISS:          0  HIT %:        100  MISS %:          0   MPKI: 0
PSCL4 PREFETCH  REQUESTED:          0  ISSUED:          0  USEFUL:          0  USELESS:          0
PSCL4 USEFUL LOAD PREFETCHES:          0 PREFETCH ISSUED TO LOWER LEVEL:          0  ACCURACY: -nan
PSCL4 TIMELY PREFETCHES:          0 LATE PREFETCHES: 0 DROPPED PREFETCHES: 0
PSCL4 PREFETCHES SAME FILL-ORIGIN LEVEL: 0 DIFFERENT FILL-ORIGIN LEVEL: 0

PSCL3 TOTAL     ACCESS:      67818  HIT:      67818  MISS:          0  HIT %:        100  MISS %:          0   MPKI: 0
PSCL3 LOAD TRANSLATION ACCESS:      10695  HIT:      10695  MISS:          0  HIT %:        100  MISS %:          0   MPKI: 0
PSCL3 TRANSLATION FROM L1D PREFETCHER ACCESS:      57123  HIT:      57123  MISS:          0  HIT %:        100  MISS %:          0   MPKI: 0
PSCL3 PREFETCH  REQUESTED:          0  ISSUED:          0  USEFUL:          0  USELESS:          0
PSCL3 USEFUL LOAD PREFETCHES:          0 PREFETCH ISSUED TO LOWER LEVEL:          0  ACCURACY: -nan
PSCL3 TIMELY PREFETCHES:          0 LATE PREFETCHES: 0 DROPPED PREFETCHES: 0
PSCL3 PREFETCHES SAME FILL-ORIGIN LEVEL: 0 DIFFERENT FILL-ORIGIN LEVEL: 0

PSCL2 TOTAL     ACCESS:      67754  HIT:      67554  MISS:        200  HIT %:    99.7048  MISS %:   0.295186   MPKI: 0.001
PSCL2 LOAD TRANSLATION ACCESS:      10715  HIT:      10515  MISS:        200  HIT %:    98.1335  MISS %:    1.86654   MPKI: 0.001
PSCL2 TRANSLATION FROM L1D PREFETCHER ACCESS:      57039  HIT:      57039  MISS:          0  HIT %:        100  MISS %:          0   MPKI: 0
PSCL2 PREFETCH  REQUESTED:          0  ISSUED:          0  USEFUL:          0  USELESS:          0
PSCL2 USEFUL LOAD PREFETCHES:          0 PREFETCH ISSUED TO LOWER LEVEL:          0  ACCURACY: -nan
PSCL2 TIMELY PREFETCHES:          0 LATE PREFETCHES: 0 DROPPED PREFETCHES: 0
PSCL2 PREFETCHES SAME FILL-ORIGIN LEVEL: 0 DIFFERENT FILL-ORIGIN LEVEL: 0

LLC TOTAL     ACCESS:    3885637  HIT:    1808635  MISS:    2077002  HIT %:    46.5467  MISS %:    53.4533   MPKI: 10.385
LLC LOAD      ACCESS:     261579  HIT:      33083  MISS:     228496  HIT %:    12.6474  MISS %:    87.3526   MPKI: 1.14248
LLC RFO       ACCESS:     553044  HIT:     122303  MISS:     430741  HIT %:    22.1145  MISS %:    77.8855   MPKI: 2.1537
LLC PREFETCH  ACCESS:    1949868  HIT:     551890  MISS:    1397978  HIT %:     28.304  MISS %:     71.696   MPKI: 6.98989
LLC WRITEBACK ACCESS:    1116234  HIT:    1100772  MISS:      15462  HIT %:    98.6148  MISS %:    1.38519   MPKI: 0.07731
LLC LOAD TRANSLATION ACCESS:       1991  HIT:        261  MISS:       1730  HIT %:     13.109  MISS %:     86.891   MPKI: 0.00865
LLC TRANSLATION FROM L1D PREFETCHER ACCESS:       2921  HIT:        326  MISS:       2595  HIT %:    11.1606  MISS %:    88.8394   MPKI: 0.012975
LLC PREFETCH  REQUESTED:          0  ISSUED:          0  USEFUL:     180226  USELESS:   10483947
LLC USEFUL LOAD PREFETCHES:     180226 PREFETCH ISSUED TO LOWER LEVEL:   10664064  ACCURACY: 1.69003
LLC TIMELY PREFETCHES:     180226 LATE PREFETCHES: 0 DROPPED PREFETCHES: 0
LLC PREFETCHES SAME FILL-ORIGIN LEVEL: 0 DIFFERENT FILL-ORIGIN LEVEL: 0
LLC AVERAGE MISS LATENCY: 4903.87 cycles
LLC RQ	ACCESS:   15962032	FORWARD:          0	MERGED:          0	TO_CACHE:   15962029
LLC WQ	ACCESS:    7691905	FORWARD:         14	MERGED:          0	TO_CACHE:    7691905
LLC PQ	ACCESS:   12907052	FORWARD:          0	MERGED:          0	TO_CACHE:   12907041

LLC Dense regions hint to LLC: 0

RAW hits: 285482
Loads Generated: 59045557
Loads sent to L1D: 58760075
Stores Generated: 10716815
Stores sent to L1D: 10716817
Major fault: 0 Minor fault: 12832
Allocated PAGES: 90740

DRAM Statistics
 CHANNEL 0
 RQ ROW_BUFFER_HIT:    2894418  ROW_BUFFER_MISS:   20663405
 DBUS_CONGESTED:        106
 WQ ROW_BUFFER_HIT:     489804  ROW_BUFFER_MISS:    6294400  FULL:        535

 AVG_CONGESTED_CYCLE: 5
 All warmup complete: 5
Channel 0 Bank busy for read cycles: 0
Channel 0 Bank busy for write cycles: 0
Channel 0
Rank 0
0banks busy for read cycles: 186185
0banks busy for write cycles: 1
1banks busy for read cycles: 24300495
1banks busy for write cycles: 781229
2banks busy for read cycles: 61404421
2banks busy for write cycles: 781520
3banks busy for read cycles: 95937503
3banks busy for write cycles: 781076
4banks busy for read cycles: 115366281
4banks busy for write cycles: 781482
5banks busy for read cycles: 117750361
5banks busy for write cycles: 820668
6banks busy for read cycles: 107789184
6banks busy for write cycles: 2494051
7banks busy for read cycles: 93077603
7banks busy for write cycles: 28209725
8banks busy for read cycles: 83129516
8banks busy for write cycles: 154685825

CPU 0 Branch Prediction Accuracy: 99.4277% MPKI: 1.31009 Average ROB Occupancy at Mispredict: 31.9588
Branch types
NOT_BRANCH: 786401491 77.1077%
BRANCH_DIRECT_JUMP: 0 0%
BRANCH_INDIRECT: 0 0%
BRANCH_CONDITIONAL: 233473114 22.8923%
BRANCH_DIRECT_CALL: 0 0%
BRANCH_INDIRECT_CALL: 0 0%
BRANCH_RETURN: 0 0%
BRANCH_OTHER: 0 0%


CPU 1 Branch Prediction Accuracy: 99.4277% MPKI: 1.31009 Average ROB Occupancy at Mispredict: 31.9592
Branch types
NOT_BRANCH: 786408083 77.1077%
BRANCH_DIRECT_JUMP: 0 0%
BRANCH_INDIRECT: 0 0%
BRANCH_CONDITIONAL: 233475075 22.8923%
BRANCH_DIRECT_CALL: 0 0%
BRANCH_INDIRECT_CALL: 0 0%
BRANCH_RETURN: 0 0%
BRANCH_OTHER: 0 0%


CPU 2 Branch Prediction Accuracy: 93.8886% MPKI: 8.11146 Average ROB Occupancy at Mispredict: 101.745
Branch types
NOT_BRANCH: 173243065 86.6215%
BRANCH_DIRECT_JUMP: 2 1e-06%
BRANCH_INDIRECT: 0 0%
BRANCH_CONDITIONAL: 26756928 13.3785%
BRANCH_DIRECT_CALL: 0 0%
BRANCH_INDIRECT_CALL: 0 0%
BRANCH_RETURN: 2 1e-06%
BRANCH_OTHER: 0 0%


CPU 3 Branch Prediction Accuracy: 98.9226% MPKI: 0.71728 Average ROB Occupancy at Mispredict: 79.8391
Branch types
NOT_BRANCH: 741386222 93.3009%
BRANCH_DIRECT_JUMP: 1264830 0.159174%
BRANCH_INDIRECT: 29 3.64955e-06%
BRANCH_CONDITIONAL: 48230607 6.06965%
BRANCH_DIRECT_CALL: 1868534 0.235148%
BRANCH_INDIRECT_CALL: 0 0%
BRANCH_RETURN: 1868530 0.235148%
BRANCH_OTHER: 0 0%

DRAM PAGES: 1048576
Allocated PAGES: 90740
