
*** ChampSim Multicore Out-of-Order Simulator ***

Warmup Instructions: 50000000
Simulation Instructions: 200000000
Number of CPUs: 4
LLC sets: 8192
LLC ways: 16
Off-chip DRAM Size: 4096 MB Channels: 1 Width: 64-bit Data Rate: 6400 MT/s
CPU 0 runs ./traces/cs/cassandra_phase2_core0.trace.xz
.xz
CPU 1 runs ./traces/cs/cassandra_phase2_core1.trace.xz
.xz
CPU 2 runs ./traces/cs/cassandra_phase2_core2.trace.xz
.xz
CPU 3 runs ./traces/cs/cassandra_phase2_core3.trace.xz
.xz
BTB has LRU replacement policy
ITLB has LRU replacement policy
DTLB has LRU replacement policy
STLB has LRU replacement policy
L1I has LRU replacement policy
History Sets: 8
History Ways: 16
BERTI Size: 16
BERTI Stride Size: 8
L1D has LRU replacement policy
Initialize SRRIP state for L2C
Initialize DRRIP state for LLC
BTB has LRU replacement policy
ITLB has LRU replacement policy
DTLB has LRU replacement policy
STLB has LRU replacement policy
L1I has LRU replacement policy
History Sets: 8
History Ways: 16
BERTI Size: 16
BERTI Stride Size: 8
L1D has LRU replacement policy
Initialize SRRIP state for L2C
Initialize DRRIP state for LLC
BTB has LRU replacement policy
ITLB has LRU replacement policy
DTLB has LRU replacement policy
STLB has LRU replacement policy
L1I has LRU replacement policy
History Sets: 8
History Ways: 16
BERTI Size: 16
BERTI Stride Size: 8
L1D has LRU replacement policy
Initialize SRRIP state for L2C
Initialize DRRIP state for LLC
BTB has LRU replacement policy
ITLB has LRU replacement policy
DTLB has LRU replacement policy
STLB has LRU replacement policy
L1I has LRU replacement policy
History Sets: 8
History Ways: 16
BERTI Size: 16
BERTI Stride Size: 8
L1D has LRU replacement policy
Initialize SRRIP state for L2C
Initialize DRRIP state for LLC
UNIQUE_ASID[0] = €
UNIQUE_ASID[1] = 
Heartbeat CPU 3 instructions: 10000003 cycles: 3143962 heartbeat IPC: 3.1807 cumulative IPC: 3.1807 (Simulation time: 0 hr 1 min 50 sec) 
Heartbeat CPU 2 instructions: 10000000 cycles: 3157539 heartbeat IPC: 3.16702 cumulative IPC: 3.16702 (Simulation time: 0 hr 1 min 50 sec) 
Heartbeat CPU 1 instructions: 10000001 cycles: 3173570 heartbeat IPC: 3.15103 cumulative IPC: 3.15103 (Simulation time: 0 hr 1 min 51 sec) 
Heartbeat CPU 0 instructions: 10000001 cycles: 3182206 heartbeat IPC: 3.14247 cumulative IPC: 3.14247 (Simulation time: 0 hr 1 min 51 sec) 
Heartbeat CPU 2 instructions: 20000002 cycles: 6140671 heartbeat IPC: 3.35218 cumulative IPC: 3.25697 (Simulation time: 0 hr 4 min 1 sec) 
Heartbeat CPU 3 instructions: 20000000 cycles: 6168025 heartbeat IPC: 3.30681 cumulative IPC: 3.24253 (Simulation time: 0 hr 4 min 3 sec) 
Heartbeat CPU 1 instructions: 20000003 cycles: 6173436 heartbeat IPC: 3.33348 cumulative IPC: 3.23969 (Simulation time: 0 hr 4 min 3 sec) 
Heartbeat CPU 0 instructions: 20000000 cycles: 6352777 heartbeat IPC: 3.15401 cumulative IPC: 3.14823 (Simulation time: 0 hr 4 min 12 sec) 
Heartbeat CPU 2 instructions: 30000003 cycles: 8924296 heartbeat IPC: 3.59244 cumulative IPC: 3.36161 (Simulation time: 0 hr 6 min 18 sec) 
Heartbeat CPU 3 instructions: 30000002 cycles: 8974987 heartbeat IPC: 3.56257 cumulative IPC: 3.34262 (Simulation time: 0 hr 6 min 20 sec) 
Heartbeat CPU 1 instructions: 30000000 cycles: 9048332 heartbeat IPC: 3.47839 cumulative IPC: 3.31553 (Simulation time: 0 hr 6 min 23 sec) 
Heartbeat CPU 0 instructions: 30000000 cycles: 9122214 heartbeat IPC: 3.61084 cumulative IPC: 3.28868 (Simulation time: 0 hr 6 min 27 sec) 
Heartbeat CPU 2 instructions: 40000001 cycles: 11775296 heartbeat IPC: 3.50754 cumulative IPC: 3.39694 (Simulation time: 0 hr 8 min 10 sec) 
Heartbeat CPU 3 instructions: 40000002 cycles: 11872934 heartbeat IPC: 3.45072 cumulative IPC: 3.36901 (Simulation time: 0 hr 8 min 15 sec) 
Heartbeat CPU 0 instructions: 40000001 cycles: 11883061 heartbeat IPC: 3.62208 cumulative IPC: 3.36614 (Simulation time: 0 hr 8 min 15 sec) 
Heartbeat CPU 1 instructions: 40000002 cycles: 11889821 heartbeat IPC: 3.51928 cumulative IPC: 3.36422 (Simulation time: 0 hr 8 min 16 sec) 
Heartbeat CPU 2 instructions: 50000001 cycles: 14626900 heartbeat IPC: 3.5068 cumulative IPC: 3.41836 (Simulation time: 0 hr 10 min 25 sec) 
Heartbeat CPU 0 instructions: 50000000 cycles: 14653878 heartbeat IPC: 3.60904 cumulative IPC: 3.41207 (Simulation time: 0 hr 10 min 26 sec) 
Heartbeat CPU 3 instructions: 50000001 cycles: 14670835 heartbeat IPC: 3.57411 cumulative IPC: 3.40812 (Simulation time: 0 hr 10 min 27 sec) 
Heartbeat CPU 1 instructions: 50000000 cycles: 14780815 heartbeat IPC: 3.45902 cumulative IPC: 3.38276 (Simulation time: 0 hr 10 min 31 sec) 

Warmup complete CPU 0 instructions: 50359751 cycles: 14780816 (Simulation time: 0 hr 10 min 31 sec) 
Warmup complete CPU 1 instructions: 50000004 cycles: 14780816 (Simulation time: 0 hr 10 min 31 sec) 
Warmup complete CPU 2 instructions: 50476937 cycles: 14780815 (Simulation time: 0 hr 10 min 31 sec) 
Warmup complete CPU 3 instructions: 50342559 cycles: 14780815 (Simulation time: 0 hr 10 min 31 sec) 

Heartbeat CPU 3 instructions: 60000000 cycles: 29597982 heartbeat IPC: 0.66992 cumulative IPC: 0.651774 (Simulation time: 0 hr 13 min 50 sec) 
Heartbeat CPU 2 instructions: 60000000 cycles: 30995837 heartbeat IPC: 0.610913 cumulative IPC: 0.587299 (Simulation time: 0 hr 14 min 11 sec) 
Heartbeat CPU 0 instructions: 60000002 cycles: 32224857 heartbeat IPC: 0.56912 cumulative IPC: 0.552639 (Simulation time: 0 hr 14 min 26 sec) 
Heartbeat CPU 1 instructions: 60000002 cycles: 32581970 heartbeat IPC: 0.561761 cumulative IPC: 0.561761 (Simulation time: 0 hr 14 min 30 sec) 
Heartbeat CPU 3 instructions: 70000003 cycles: 44770359 heartbeat IPC: 0.659093 cumulative IPC: 0.655477 (Simulation time: 0 hr 16 min 51 sec) 
Heartbeat CPU 2 instructions: 70000000 cycles: 47842074 heartbeat IPC: 0.593604 cumulative IPC: 0.590512 (Simulation time: 0 hr 17 min 16 sec) 
Heartbeat CPU 1 instructions: 70000003 cycles: 49908422 heartbeat IPC: 0.577152 cumulative IPC: 0.569353 (Simulation time: 0 hr 17 min 34 sec) 
Heartbeat CPU 0 instructions: 70000001 cycles: 50286942 heartbeat IPC: 0.553646 cumulative IPC: 0.553151 (Simulation time: 0 hr 17 min 37 sec) 
Heartbeat CPU 3 instructions: 80000003 cycles: 61854923 heartbeat IPC: 0.585324 cumulative IPC: 0.630016 (Simulation time: 0 hr 19 min 41 sec) 
Heartbeat CPU 2 instructions: 80000002 cycles: 64434170 heartbeat IPC: 0.602697 cumulative IPC: 0.594584 (Simulation time: 0 hr 20 min 17 sec) 
Heartbeat CPU 0 instructions: 80000003 cycles: 66610776 heartbeat IPC: 0.612601 cumulative IPC: 0.571875 (Simulation time: 0 hr 20 min 44 sec) 
Heartbeat CPU 1 instructions: 80000002 cycles: 67667630 heartbeat IPC: 0.563088 cumulative IPC: 0.567249 (Simulation time: 0 hr 20 min 55 sec) 
Heartbeat CPU 3 instructions: 90000002 cycles: 77830979 heartbeat IPC: 0.625937 cumulative IPC: 0.628982 (Simulation time: 0 hr 22 min 57 sec) 
Heartbeat CPU 2 instructions: 90000000 cycles: 81162800 heartbeat IPC: 0.597777 cumulative IPC: 0.595388 (Simulation time: 0 hr 23 min 43 sec) 
Heartbeat CPU 0 instructions: 90000001 cycles: 82921678 heartbeat IPC: 0.613087 cumulative IPC: 0.58174 (Simulation time: 0 hr 24 min 5 sec) 
Heartbeat CPU 1 instructions: 90000000 cycles: 86280545 heartbeat IPC: 0.537261 cumulative IPC: 0.559443 (Simulation time: 0 hr 24 min 41 sec) 
Heartbeat CPU 3 instructions: 100000003 cycles: 94412786 heartbeat IPC: 0.603071 cumulative IPC: 0.623587 (Simulation time: 0 hr 26 min 16 sec) 
Heartbeat CPU 2 instructions: 100000002 cycles: 97752993 heartbeat IPC: 0.602766 cumulative IPC: 0.596864 (Simulation time: 0 hr 26 min 59 sec) 
Heartbeat CPU 0 instructions: 100000001 cycles: 100905547 heartbeat IPC: 0.556054 cumulative IPC: 0.576376 (Simulation time: 0 hr 27 min 40 sec) 
Heartbeat CPU 1 instructions: 100000003 cycles: 104080643 heartbeat IPC: 0.561795 cumulative IPC: 0.559911 (Simulation time: 0 hr 28 min 31 sec) 
Heartbeat CPU 3 instructions: 110000000 cycles: 109751145 heartbeat IPC: 0.65196 cumulative IPC: 0.628169 (Simulation time: 0 hr 30 min 6 sec) 
Heartbeat CPU 2 instructions: 110000000 cycles: 112835329 heartbeat IPC: 0.663027 cumulative IPC: 0.607041 (Simulation time: 0 hr 30 min 55 sec) 
Heartbeat CPU 0 instructions: 110000000 cycles: 116021428 heartbeat IPC: 0.661556 cumulative IPC: 0.589094 (Simulation time: 0 hr 31 min 42 sec) 
Heartbeat CPU 1 instructions: 110000000 cycles: 119322798 heartbeat IPC: 0.656075 cumulative IPC: 0.573932 (Simulation time: 0 hr 32 min 30 sec) 
Heartbeat CPU 3 instructions: 120000000 cycles: 126643221 heartbeat IPC: 0.591994 cumulative IPC: 0.622706 (Simulation time: 0 hr 34 min 14 sec) 
Heartbeat CPU 2 instructions: 120000003 cycles: 128224408 heartbeat IPC: 0.649812 cumulative IPC: 0.612843 (Simulation time: 0 hr 34 min 33 sec) 
Heartbeat CPU 0 instructions: 120000001 cycles: 134033515 heartbeat IPC: 0.555183 cumulative IPC: 0.583972 (Simulation time: 0 hr 35 min 45 sec) 
Heartbeat CPU 1 instructions: 120000000 cycles: 138910739 heartbeat IPC: 0.510518 cumulative IPC: 0.563925 (Simulation time: 0 hr 36 min 37 sec) 
Heartbeat CPU 3 instructions: 130000003 cycles: 143941399 heartbeat IPC: 0.578096 cumulative IPC: 0.616732 (Simulation time: 0 hr 37 min 34 sec) 
Heartbeat CPU 2 instructions: 130000001 cycles: 149710973 heartbeat IPC: 0.465407 cumulative IPC: 0.589365 (Simulation time: 0 hr 38 min 40 sec) 
Heartbeat CPU 0 instructions: 130000002 cycles: 154621817 heartbeat IPC: 0.485713 cumulative IPC: 0.569506 (Simulation time: 0 hr 39 min 40 sec) 
Heartbeat CPU 1 instructions: 130000003 cycles: 158200742 heartbeat IPC: 0.518403 cumulative IPC: 0.557803 (Simulation time: 0 hr 40 min 20 sec) 
Heartbeat CPU 3 instructions: 140000003 cycles: 161308724 heartbeat IPC: 0.575794 cumulative IPC: 0.61188 (Simulation time: 0 hr 40 min 47 sec) 
Heartbeat CPU 2 instructions: 140000000 cycles: 168412335 heartbeat IPC: 0.53472 cumulative IPC: 0.582713 (Simulation time: 0 hr 42 min 3 sec) 
Heartbeat CPU 0 instructions: 140000001 cycles: 171995319 heartbeat IPC: 0.575589 cumulative IPC: 0.570178 (Simulation time: 0 hr 42 min 47 sec) 
Heartbeat CPU 1 instructions: 140000002 cycles: 175751071 heartbeat IPC: 0.56979 cumulative IPC: 0.55911 (Simulation time: 0 hr 43 min 36 sec) 
Heartbeat CPU 3 instructions: 150000001 cycles: 177369404 heartbeat IPC: 0.622639 cumulative IPC: 0.612942 (Simulation time: 0 hr 43 min 58 sec) 
Heartbeat CPU 2 instructions: 150000003 cycles: 184601002 heartbeat IPC: 0.617716 cumulative IPC: 0.58605 (Simulation time: 0 hr 45 min 13 sec) 
Heartbeat CPU 0 instructions: 150000002 cycles: 188878685 heartbeat IPC: 0.592299 cumulative IPC: 0.572323 (Simulation time: 0 hr 46 min 6 sec) 
Heartbeat CPU 1 instructions: 150000000 cycles: 191873200 heartbeat IPC: 0.620265 cumulative IPC: 0.564677 (Simulation time: 0 hr 46 min 34 sec) 
Heartbeat CPU 3 instructions: 160000002 cycles: 192914966 heartbeat IPC: 0.64327 cumulative IPC: 0.615589 (Simulation time: 0 hr 46 min 45 sec) 
Heartbeat CPU 2 instructions: 160000003 cycles: 201478727 heartbeat IPC: 0.592497 cumulative IPC: 0.586632 (Simulation time: 0 hr 48 min 21 sec) 
Heartbeat CPU 0 instructions: 160000003 cycles: 207589641 heartbeat IPC: 0.534446 cumulative IPC: 0.568648 (Simulation time: 0 hr 49 min 42 sec) 
Heartbeat CPU 3 instructions: 170000000 cycles: 207808714 heartbeat IPC: 0.671423 cumulative IPC: 0.619897 (Simulation time: 0 hr 49 min 44 sec) 
Heartbeat CPU 1 instructions: 160000003 cycles: 209771733 heartbeat IPC: 0.558705 cumulative IPC: 0.564129 (Simulation time: 0 hr 50 min 7 sec) 
Heartbeat CPU 2 instructions: 170000000 cycles: 218033304 heartbeat IPC: 0.604062 cumulative IPC: 0.588052 (Simulation time: 0 hr 51 min 51 sec) 
Heartbeat CPU 3 instructions: 180000000 cycles: 224696939 heartbeat IPC: 0.592129 cumulative IPC: 0.617663 (Simulation time: 0 hr 53 min 8 sec) 
Heartbeat CPU 0 instructions: 170000002 cycles: 225694882 heartbeat IPC: 0.552326 cumulative IPC: 0.567246 (Simulation time: 0 hr 53 min 19 sec) 
Heartbeat CPU 1 instructions: 170000003 cycles: 226749096 heartbeat IPC: 0.58902 cumulative IPC: 0.566122 (Simulation time: 0 hr 53 min 32 sec) 
Heartbeat CPU 2 instructions: 180000001 cycles: 234433606 heartbeat IPC: 0.609745 cumulative IPC: 0.589672 (Simulation time: 0 hr 55 min 13 sec) 
Heartbeat CPU 3 instructions: 190000001 cycles: 240571843 heartbeat IPC: 0.629925 cumulative IPC: 0.618525 (Simulation time: 0 hr 56 min 26 sec) 
Heartbeat CPU 0 instructions: 180000002 cycles: 241988954 heartbeat IPC: 0.61372 cumulative IPC: 0.570579 (Simulation time: 0 hr 56 min 41 sec) 
Heartbeat CPU 1 instructions: 180000002 cycles: 244352329 heartbeat IPC: 0.568077 cumulative IPC: 0.566272 (Simulation time: 0 hr 57 min 3 sec) 
Heartbeat CPU 2 instructions: 190000003 cycles: 251176871 heartbeat IPC: 0.597255 cumulative IPC: 0.590209 (Simulation time: 0 hr 58 min 23 sec) 
Heartbeat CPU 3 instructions: 200000000 cycles: 257130220 heartbeat IPC: 0.603924 cumulative IPC: 0.617528 (Simulation time: 0 hr 59 min 36 sec) 
Heartbeat CPU 0 instructions: 190000000 cycles: 258232722 heartbeat IPC: 0.615621 cumulative IPC: 0.573585 (Simulation time: 0 hr 59 min 50 sec) 
Heartbeat CPU 1 instructions: 190000000 cycles: 262444795 heartbeat IPC: 0.552716 cumulative IPC: 0.565282 (Simulation time: 1 hr 0 min 29 sec) 
Heartbeat CPU 2 instructions: 200000002 cycles: 267642494 heartbeat IPC: 0.607326 cumulative IPC: 0.591324 (Simulation time: 1 hr 1 min 22 sec) 
Heartbeat CPU 3 instructions: 210000002 cycles: 272689400 heartbeat IPC: 0.642708 cumulative IPC: 0.619047 (Simulation time: 1 hr 2 min 16 sec) 
Heartbeat CPU 0 instructions: 200000000 cycles: 275961821 heartbeat IPC: 0.564044 cumulative IPC: 0.572937 (Simulation time: 1 hr 2 min 54 sec) 
Heartbeat CPU 1 instructions: 200000002 cycles: 279924877 heartbeat IPC: 0.57208 cumulative IPC: 0.56573 (Simulation time: 1 hr 3 min 48 sec) 
Heartbeat CPU 2 instructions: 210000000 cycles: 282905960 heartbeat IPC: 0.655159 cumulative IPC: 0.594957 (Simulation time: 1 hr 4 min 38 sec) 
Heartbeat CPU 3 instructions: 220000000 cycles: 289221080 heartbeat IPC: 0.604899 cumulative IPC: 0.618194 (Simulation time: 1 hr 6 min 20 sec) 
Heartbeat CPU 0 instructions: 210000002 cycles: 291211925 heartbeat IPC: 0.655733 cumulative IPC: 0.577505 (Simulation time: 1 hr 6 min 51 sec) 
Heartbeat CPU 1 instructions: 210000000 cycles: 295173849 heartbeat IPC: 0.655782 cumulative IPC: 0.570628 (Simulation time: 1 hr 7 min 55 sec) 
Heartbeat CPU 2 instructions: 220000000 cycles: 298236931 heartbeat IPC: 0.652274 cumulative IPC: 0.598058 (Simulation time: 1 hr 8 min 38 sec) 
Heartbeat CPU 3 instructions: 230000003 cycles: 304837098 heartbeat IPC: 0.640368 cumulative IPC: 0.619388 (Simulation time: 1 hr 10 min 14 sec) 
Heartbeat CPU 0 instructions: 220000000 cycles: 309093918 heartbeat IPC: 0.559222 cumulative IPC: 0.576394 (Simulation time: 1 hr 10 min 48 sec) 
Heartbeat CPU 1 instructions: 220000000 cycles: 314829863 heartbeat IPC: 0.50875 cumulative IPC: 0.566574 (Simulation time: 1 hr 11 min 50 sec) 
Heartbeat CPU 2 instructions: 230000000 cycles: 319482112 heartbeat IPC: 0.470695 cumulative IPC: 0.589177 (Simulation time: 1 hr 12 min 30 sec) 
Heartbeat CPU 3 instructions: 240000002 cycles: 323227858 heartbeat IPC: 0.543751 cumulative IPC: 0.614878 (Simulation time: 1 hr 13 min 0 sec) 
Heartbeat CPU 0 instructions: 230000001 cycles: 329664826 heartbeat IPC: 0.486123 cumulative IPC: 0.570497 (Simulation time: 1 hr 14 min 9 sec) 
Heartbeat CPU 1 instructions: 230000003 cycles: 333727554 heartbeat IPC: 0.529165 cumulative IPC: 0.564358 (Simulation time: 1 hr 14 min 59 sec) 
Heartbeat CPU 2 instructions: 240000001 cycles: 337910475 heartbeat IPC: 0.542642 cumulative IPC: 0.586523 (Simulation time: 1 hr 15 min 53 sec) 
Heartbeat CPU 3 instructions: 250000001 cycles: 339210860 heartbeat IPC: 0.625665 cumulative IPC: 0.61541 (Simulation time: 1 hr 16 min 10 sec) 
Finished CPU 3 instructions: 200000000 cycles: 325315089 cumulative IPC: 0.614789 (Simulation time: 1 hr 16 min 20 sec) 
Heartbeat CPU 0 instructions: 240000002 cycles: 346854250 heartbeat IPC: 0.581753 cumulative IPC: 0.571079 (Simulation time: 1 hr 17 min 53 sec) 
Heartbeat CPU 1 instructions: 240000000 cycles: 351183177 heartbeat IPC: 0.572881 cumulative IPC: 0.5648 (Simulation time: 1 hr 18 min 51 sec) 
Heartbeat CPU 2 instructions: 250000003 cycles: 354118717 heartbeat IPC: 0.61697 cumulative IPC: 0.587978 (Simulation time: 1 hr 19 min 31 sec) 
Heartbeat CPU 3 instructions: 260000000 cycles: 354442443 heartbeat IPC: 0.65653 cumulative IPC: 0.617254 (Simulation time: 1 hr 19 min 36 sec) 
Finished CPU 2 instructions: 200000002 cycles: 340071302 cumulative IPC: 0.588112 (Simulation time: 1 hr 19 min 41 sec) 
Heartbeat CPU 0 instructions: 250000001 cycles: 363990755 heartbeat IPC: 0.583549 cumulative IPC: 0.571691 (Simulation time: 1 hr 21 min 42 sec) 
Finished CPU 0 instructions: 200000002 cycles: 350391700 cumulative IPC: 0.57079 (Simulation time: 1 hr 21 min 55 sec) 
Heartbeat CPU 1 instructions: 250000000 cycles: 367493871 heartbeat IPC: 0.613095 cumulative IPC: 0.567033 (Simulation time: 1 hr 22 min 26 sec) 
Finished CPU 1 instructions: 200000000 cycles: 352713056 cumulative IPC: 0.567033 (Simulation time: 1 hr 22 min 26 sec) 

ChampSim completed all CPUs

Total Simulation Statistics (not including warmup)

CPU 0 cumulative IPC: 0.570586 instructions: 201253160 cycles: 352713056
ITLB TOTAL     ACCESS:   30206572  HIT:   28549929  MISS:    1656643  HIT %:    94.5156  MISS %:    5.48438   MPKI: 8.23164
ITLB LOAD      ACCESS:          0  HIT:          0  MISS:          0  HIT %:       -nan  MISS %:       -nan   MPKI: 0
ITLB RFO       ACCESS:          0  HIT:          0  MISS:          0  HIT %:       -nan  MISS %:       -nan   MPKI: 0
ITLB PREFETCH  ACCESS:          0  HIT:          0  MISS:          0  HIT %:       -nan  MISS %:       -nan   MPKI: 0
ITLB WRITEBACK ACCESS:          0  HIT:          0  MISS:          0  HIT %:       -nan  MISS %:       -nan   MPKI: 0
DTLB TOTAL     ACCESS:   17698389  HIT:   10869195  MISS:    6829194  HIT %:    61.4135  MISS %:    38.5865   MPKI: 33.9334
DTLB LOAD      ACCESS:          0  HIT:          0  MISS:          0  HIT %:       -nan  MISS %:       -nan   MPKI: 0
DTLB RFO       ACCESS:          0  HIT:          0  MISS:          0  HIT %:       -nan  MISS %:       -nan   MPKI: 0
DTLB PREFETCH  ACCESS:          0  HIT:          0  MISS:          0  HIT %:       -nan  MISS %:       -nan   MPKI: 0
DTLB WRITEBACK ACCESS:          0  HIT:          0  MISS:          0  HIT %:       -nan  MISS %:       -nan   MPKI: 0
STLB TOTAL     ACCESS:    9259909  HIT:    3854639  MISS:    5405270  HIT %:    41.6272  MISS %:    58.3728   MPKI: 26.8581
STLB LOAD      ACCESS:          0  HIT:          0  MISS:          0  HIT %:       -nan  MISS %:       -nan   MPKI: 0
STLB RFO       ACCESS:          0  HIT:          0  MISS:          0  HIT %:       -nan  MISS %:       -nan   MPKI: 0
STLB PREFETCH  ACCESS:          0  HIT:          0  MISS:          0  HIT %:       -nan  MISS %:       -nan   MPKI: 0
STLB WRITEBACK ACCESS:          0  HIT:          0  MISS:          0  HIT %:       -nan  MISS %:       -nan   MPKI: 0
L1D TOTAL     ACCESS:   23670968  HIT:   22086630  MISS:    1584338  HIT %:    93.3068  MISS %:    6.69317   MPKI: 7.87236
L1D LOAD      ACCESS:   14077820  HIT:   12987956  MISS:    1089864  HIT %:    92.2583  MISS %:    7.74171   MPKI: 5.41539
L1D RFO       ACCESS:    7661075  HIT:    7480115  MISS:     180960  HIT %:    97.6379  MISS %:    2.36207   MPKI: 0.899166
L1D PREFETCH  ACCESS:    1932073  HIT:    1618559  MISS:     313514  HIT %:    83.7732  MISS %:    16.2268   MPKI: 1.55781
L1D WRITEBACK ACCESS:          0  HIT:          0  MISS:          0  HIT %:       -nan  MISS %:       -nan   MPKI: 0
L1I TOTAL     ACCESS:   39313214  HIT:   38857409  MISS:     455805  HIT %:    98.8406  MISS %:    1.15942   MPKI: 2.26483
L1I LOAD      ACCESS:   39313214  HIT:   38857409  MISS:     455805  HIT %:    98.8406  MISS %:    1.15942   MPKI: 2.26483
L1I RFO       ACCESS:          0  HIT:          0  MISS:          0  HIT %:       -nan  MISS %:       -nan   MPKI: 0
L1I PREFETCH  ACCESS:          0  HIT:          0  MISS:          0  HIT %:       -nan  MISS %:       -nan   MPKI: 0
L1I WRITEBACK ACCESS:          0  HIT:          0  MISS:          0  HIT %:       -nan  MISS %:       -nan   MPKI: 0
L2C TOTAL     ACCESS:    9155144  HIT:    7240120  MISS:    1915024  HIT %:    79.0825  MISS %:    20.9175   MPKI: 9.5155
L2C LOAD      ACCESS:    1540107  HIT:     407268  MISS:    1132839  HIT %:    26.4441  MISS %:    73.5559   MPKI: 5.62893
L2C RFO       ACCESS:     180928  HIT:      65144  MISS:     115784  HIT %:    36.0055  MISS %:    63.9945   MPKI: 0.575315
L2C PREFETCH  ACCESS:    1089179  HIT:     700423  MISS:     388756  HIT %:    64.3074  MISS %:    35.6926   MPKI: 1.93168
L2C WRITEBACK ACCESS:     510193  HIT:     478667  MISS:      31526  HIT %:    93.8208  MISS %:    6.17923   MPKI: 0.156648
PSCL5 TOTAL     ACCESS:    5432815  HIT:    5432815  MISS:          0  HIT %:        100  MISS %:          0   MPKI: 0
PSCL5 LOAD      ACCESS:          0  HIT:          0  MISS:          0  HIT %:       -nan  MISS %:       -nan   MPKI: 0
PSCL5 RFO       ACCESS:          0  HIT:          0  MISS:          0  HIT %:       -nan  MISS %:       -nan   MPKI: 0
PSCL5 PREFETCH  ACCESS:          0  HIT:          0  MISS:          0  HIT %:       -nan  MISS %:       -nan   MPKI: 0
PSCL5 WRITEBACK ACCESS:          0  HIT:          0  MISS:          0  HIT %:       -nan  MISS %:       -nan   MPKI: 0
PSCL4 TOTAL     ACCESS:    5384520  HIT:    5384005  MISS:        515  HIT %:    99.9904  MISS %: 0.00956446   MPKI: 0.00255897
PSCL4 LOAD      ACCESS:          0  HIT:          0  MISS:          0  HIT %:       -nan  MISS %:       -nan   MPKI: 0
PSCL4 RFO       ACCESS:          0  HIT:          0  MISS:          0  HIT %:       -nan  MISS %:       -nan   MPKI: 0
PSCL4 PREFETCH  ACCESS:          0  HIT:          0  MISS:          0  HIT %:       -nan  MISS %:       -nan   MPKI: 0
PSCL4 WRITEBACK ACCESS:          0  HIT:          0  MISS:          0  HIT %:       -nan  MISS %:       -nan   MPKI: 0
PSCL3 TOTAL     ACCESS:    5416651  HIT:    5412409  MISS:       4242  HIT %:    99.9217  MISS %:  0.0783141   MPKI: 0.0210779
PSCL3 LOAD      ACCESS:          0  HIT:          0  MISS:          0  HIT %:       -nan  MISS %:       -nan   MPKI: 0
PSCL3 RFO       ACCESS:          0  HIT:          0  MISS:          0  HIT %:       -nan  MISS %:       -nan   MPKI: 0
PSCL3 PREFETCH  ACCESS:          0  HIT:          0  MISS:          0  HIT %:       -nan  MISS %:       -nan   MPKI: 0
PSCL3 WRITEBACK ACCESS:          0  HIT:          0  MISS:          0  HIT %:       -nan  MISS %:       -nan   MPKI: 0
PSCL2 TOTAL     ACCESS:    5432719  HIT:    5035522  MISS:     397197  HIT %:    92.6888  MISS %:     7.3112   MPKI: 1.97362
PSCL2 LOAD      ACCESS:          0  HIT:          0  MISS:          0  HIT %:       -nan  MISS %:       -nan   MPKI: 0
PSCL2 RFO       ACCESS:          0  HIT:          0  MISS:          0  HIT %:       -nan  MISS %:       -nan   MPKI: 0
PSCL2 PREFETCH  ACCESS:          0  HIT:          0  MISS:          0  HIT %:       -nan  MISS %:       -nan   MPKI: 0
PSCL2 WRITEBACK ACCESS:          0  HIT:          0  MISS:          0  HIT %:       -nan  MISS %:       -nan   MPKI: 0
LLC TOTAL     ACCESS:    2310641  HIT:     916585  MISS:    1394056  HIT %:     39.668  MISS %:     60.332   MPKI: 6.92688
LLC LOAD      ACCESS:    1122016  HIT:     347585  MISS:     774431  HIT %:    30.9786  MISS %:    69.0214   MPKI: 3.84804
LLC RFO       ACCESS:     114957  HIT:      21153  MISS:      93804  HIT %:    18.4008  MISS %:    81.5992   MPKI: 0.4661
LLC PREFETCH  ACCESS:     400406  HIT:      17894  MISS:     382512  HIT %:    4.46896  MISS %:     95.531   MPKI: 1.90065
LLC WRITEBACK ACCESS:     427143  HIT:     402522  MISS:      24621  HIT %:    94.2359  MISS %:    5.76411   MPKI: 0.122338

RAW hits: 1271418
Loads Generated: 26479765
Loads sent to L1D: 25208349
Stores Generated: 8692195
Stores sent to L1D: 8692195

CPU 1 cumulative IPC: 0.567033 instructions: 200000000 cycles: 352713056
ITLB TOTAL     ACCESS:   30493066  HIT:   28787731  MISS:    1705335  HIT %:    94.4075  MISS %:    5.59253   MPKI: 8.52667
ITLB LOAD      ACCESS:          0  HIT:          0  MISS:          0  HIT %:       -nan  MISS %:       -nan   MPKI: 0
ITLB RFO       ACCESS:          0  HIT:          0  MISS:          0  HIT %:       -nan  MISS %:       -nan   MPKI: 0
ITLB PREFETCH  ACCESS:          0  HIT:          0  MISS:          0  HIT %:       -nan  MISS %:       -nan   MPKI: 0
ITLB WRITEBACK ACCESS:          0  HIT:          0  MISS:          0  HIT %:       -nan  MISS %:       -nan   MPKI: 0
DTLB TOTAL     ACCESS:   18087835  HIT:   11494028  MISS:    6593807  HIT %:    63.5456  MISS %:    36.4544   MPKI: 32.969
DTLB LOAD      ACCESS:          0  HIT:          0  MISS:          0  HIT %:       -nan  MISS %:       -nan   MPKI: 0
DTLB RFO       ACCESS:          0  HIT:          0  MISS:          0  HIT %:       -nan  MISS %:       -nan   MPKI: 0
DTLB PREFETCH  ACCESS:          0  HIT:          0  MISS:          0  HIT %:       -nan  MISS %:       -nan   MPKI: 0
DTLB WRITEBACK ACCESS:          0  HIT:          0  MISS:          0  HIT %:       -nan  MISS %:       -nan   MPKI: 0
STLB TOTAL     ACCESS:    9720733  HIT:    4413156  MISS:    5307577  HIT %:    45.3994  MISS %:    54.6006   MPKI: 26.5379
STLB LOAD      ACCESS:          0  HIT:          0  MISS:          0  HIT %:       -nan  MISS %:       -nan   MPKI: 0
STLB RFO       ACCESS:          0  HIT:          0  MISS:          0  HIT %:       -nan  MISS %:       -nan   MPKI: 0
STLB PREFETCH  ACCESS:          0  HIT:          0  MISS:          0  HIT %:       -nan  MISS %:       -nan   MPKI: 0
STLB WRITEBACK ACCESS:          0  HIT:          0  MISS:          0  HIT %:       -nan  MISS %:       -nan   MPKI: 0
L1D TOTAL     ACCESS:   26137437  HIT:   24360105  MISS:    1777332  HIT %:    93.2001  MISS %:    6.79995   MPKI: 8.88666
L1D LOAD      ACCESS:   14527197  HIT:   13336121  MISS:    1191076  HIT %:    91.8011  MISS %:    8.19894   MPKI: 5.95538
L1D RFO       ACCESS:    7348343  HIT:    7130981  MISS:     217362  HIT %:     97.042  MISS %:    2.95797   MPKI: 1.08681
L1D PREFETCH  ACCESS:    4261897  HIT:    3893003  MISS:     368894  HIT %:    91.3444  MISS %:    8.65563   MPKI: 1.84447
L1D WRITEBACK ACCESS:          0  HIT:          0  MISS:          0  HIT %:       -nan  MISS %:       -nan   MPKI: 0
L1I TOTAL     ACCESS:   38925998  HIT:   38180315  MISS:     745683  HIT %:    98.0844  MISS %:    1.91564   MPKI: 3.72842
L1I LOAD      ACCESS:   38925998  HIT:   38180315  MISS:     745683  HIT %:    98.0844  MISS %:    1.91564   MPKI: 3.72842
L1I RFO       ACCESS:          0  HIT:          0  MISS:          0  HIT %:       -nan  MISS %:       -nan   MPKI: 0
L1I PREFETCH  ACCESS:          0  HIT:          0  MISS:          0  HIT %:       -nan  MISS %:       -nan   MPKI: 0
L1I WRITEBACK ACCESS:          0  HIT:          0  MISS:          0  HIT %:       -nan  MISS %:       -nan   MPKI: 0
L2C TOTAL     ACCESS:    9799832  HIT:    7671696  MISS:    2128136  HIT %:     78.284  MISS %:     21.716   MPKI: 10.6407
L2C LOAD      ACCESS:    1928133  HIT:     716878  MISS:    1211255  HIT %:    37.1799  MISS %:    62.8201   MPKI: 6.05628
L2C RFO       ACCESS:     217282  HIT:      82668  MISS:     134614  HIT %:    38.0464  MISS %:    61.9536   MPKI: 0.67307
L2C PREFETCH  ACCESS:    1256097  HIT:     750604  MISS:     505493  HIT %:    59.7568  MISS %:    40.2432   MPKI: 2.52746
L2C WRITEBACK ACCESS:     617219  HIT:     579827  MISS:      37392  HIT %:    93.9419  MISS %:    6.05814   MPKI: 0.18696
PSCL5 TOTAL     ACCESS:    5342030  HIT:    5342030  MISS:          0  HIT %:        100  MISS %:          0   MPKI: 0
PSCL5 LOAD      ACCESS:          0  HIT:          0  MISS:          0  HIT %:       -nan  MISS %:       -nan   MPKI: 0
PSCL5 RFO       ACCESS:          0  HIT:          0  MISS:          0  HIT %:       -nan  MISS %:       -nan   MPKI: 0
PSCL5 PREFETCH  ACCESS:          0  HIT:          0  MISS:          0  HIT %:       -nan  MISS %:       -nan   MPKI: 0
PSCL5 WRITEBACK ACCESS:          0  HIT:          0  MISS:          0  HIT %:       -nan  MISS %:       -nan   MPKI: 0
PSCL4 TOTAL     ACCESS:    5292355  HIT:    5291780  MISS:        575  HIT %:    99.9891  MISS %:  0.0108647   MPKI: 0.002875
PSCL4 LOAD      ACCESS:          0  HIT:          0  MISS:          0  HIT %:       -nan  MISS %:       -nan   MPKI: 0
PSCL4 RFO       ACCESS:          0  HIT:          0  MISS:          0  HIT %:       -nan  MISS %:       -nan   MPKI: 0
PSCL4 PREFETCH  ACCESS:          0  HIT:          0  MISS:          0  HIT %:       -nan  MISS %:       -nan   MPKI: 0
PSCL4 WRITEBACK ACCESS:          0  HIT:          0  MISS:          0  HIT %:       -nan  MISS %:       -nan   MPKI: 0
PSCL3 TOTAL     ACCESS:    5321639  HIT:    5314886  MISS:       6753  HIT %:    99.8731  MISS %:   0.126897   MPKI: 0.033765
PSCL3 LOAD      ACCESS:          0  HIT:          0  MISS:          0  HIT %:       -nan  MISS %:       -nan   MPKI: 0
PSCL3 RFO       ACCESS:          0  HIT:          0  MISS:          0  HIT %:       -nan  MISS %:       -nan   MPKI: 0
PSCL3 PREFETCH  ACCESS:          0  HIT:          0  MISS:          0  HIT %:       -nan  MISS %:       -nan   MPKI: 0
PSCL3 WRITEBACK ACCESS:          0  HIT:          0  MISS:          0  HIT %:       -nan  MISS %:       -nan   MPKI: 0
PSCL2 TOTAL     ACCESS:    5341842  HIT:    4910064  MISS:     431778  HIT %:    91.9171  MISS %:    8.08294   MPKI: 2.15889
PSCL2 LOAD      ACCESS:          0  HIT:          0  MISS:          0  HIT %:       -nan  MISS %:       -nan   MPKI: 0
PSCL2 RFO       ACCESS:          0  HIT:          0  MISS:          0  HIT %:       -nan  MISS %:       -nan   MPKI: 0
PSCL2 PREFETCH  ACCESS:          0  HIT:          0  MISS:          0  HIT %:       -nan  MISS %:       -nan   MPKI: 0
PSCL2 WRITEBACK ACCESS:          0  HIT:          0  MISS:          0  HIT %:       -nan  MISS %:       -nan   MPKI: 0
LLC TOTAL     ACCESS:    2601494  HIT:    1092867  MISS:    1508627  HIT %:    42.0092  MISS %:    57.9908   MPKI: 7.54314
LLC LOAD      ACCESS:    1181865  HIT:     415759  MISS:     766106  HIT %:    35.1782  MISS %:    64.8218   MPKI: 3.83053
LLC RFO       ACCESS:     134079  HIT:      43946  MISS:      90133  HIT %:    32.7762  MISS %:    67.2238   MPKI: 0.450665
LLC PREFETCH  ACCESS:     535417  HIT:      21963  MISS:     513454  HIT %:    4.10204  MISS %:     95.898   MPKI: 2.56727
LLC WRITEBACK ACCESS:     510751  HIT:     489137  MISS:      21614  HIT %:    95.7682  MISS %:    4.23181   MPKI: 0.10807

RAW hits: 1385615
Loads Generated: 27075150
Loads sent to L1D: 25689534
Stores Generated: 8483873
Stores sent to L1D: 8483880

CPU 2 cumulative IPC: 0.587953 instructions: 207378595 cycles: 352713057
ITLB TOTAL     ACCESS:   31285751  HIT:   29645368  MISS:    1640383  HIT %:    94.7568  MISS %:    5.24323   MPKI: 7.91009
ITLB LOAD      ACCESS:          0  HIT:          0  MISS:          0  HIT %:       -nan  MISS %:       -nan   MPKI: 0
ITLB RFO       ACCESS:          0  HIT:          0  MISS:          0  HIT %:       -nan  MISS %:       -nan   MPKI: 0
ITLB PREFETCH  ACCESS:          0  HIT:          0  MISS:          0  HIT %:       -nan  MISS %:       -nan   MPKI: 0
ITLB WRITEBACK ACCESS:          0  HIT:          0  MISS:          0  HIT %:       -nan  MISS %:       -nan   MPKI: 0
DTLB TOTAL     ACCESS:   17785805  HIT:   11258036  MISS:    6527769  HIT %:    63.2979  MISS %:    36.7021   MPKI: 31.4775
DTLB LOAD      ACCESS:          0  HIT:          0  MISS:          0  HIT %:       -nan  MISS %:       -nan   MPKI: 0
DTLB RFO       ACCESS:          0  HIT:          0  MISS:          0  HIT %:       -nan  MISS %:       -nan   MPKI: 0
DTLB PREFETCH  ACCESS:          0  HIT:          0  MISS:          0  HIT %:       -nan  MISS %:       -nan   MPKI: 0
DTLB WRITEBACK ACCESS:          0  HIT:          0  MISS:          0  HIT %:       -nan  MISS %:       -nan   MPKI: 0
STLB TOTAL     ACCESS:    9389691  HIT:    4237885  MISS:    5151806  HIT %:    45.1334  MISS %:    54.8666   MPKI: 24.8425
STLB LOAD      ACCESS:          0  HIT:          0  MISS:          0  HIT %:       -nan  MISS %:       -nan   MPKI: 0
STLB RFO       ACCESS:          0  HIT:          0  MISS:          0  HIT %:       -nan  MISS %:       -nan   MPKI: 0
STLB PREFETCH  ACCESS:          0  HIT:          0  MISS:          0  HIT %:       -nan  MISS %:       -nan   MPKI: 0
STLB WRITEBACK ACCESS:          0  HIT:          0  MISS:          0  HIT %:       -nan  MISS %:       -nan   MPKI: 0
L1D TOTAL     ACCESS:   25213960  HIT:   23639296  MISS:    1574664  HIT %:    93.7548  MISS %:    6.24521   MPKI: 7.59318
L1D LOAD      ACCESS:   14704076  HIT:   13633924  MISS:    1070152  HIT %:    92.7221  MISS %:    7.27793   MPKI: 5.16038
L1D RFO       ACCESS:    6924283  HIT:    6760536  MISS:     163747  HIT %:    97.6352  MISS %:    2.36482   MPKI: 0.789604
L1D PREFETCH  ACCESS:    3585601  HIT:    3244836  MISS:     340765  HIT %:    90.4963  MISS %:    9.50371   MPKI: 1.6432
L1D WRITEBACK ACCESS:          0  HIT:          0  MISS:          0  HIT %:       -nan  MISS %:       -nan   MPKI: 0
L1I TOTAL     ACCESS:   40262347  HIT:   39849075  MISS:     413272  HIT %:    98.9736  MISS %:    1.02645   MPKI: 1.99284
L1I LOAD      ACCESS:   40262347  HIT:   39849075  MISS:     413272  HIT %:    98.9736  MISS %:    1.02645   MPKI: 1.99284
L1I RFO       ACCESS:          0  HIT:          0  MISS:          0  HIT %:       -nan  MISS %:       -nan   MPKI: 0
L1I PREFETCH  ACCESS:          0  HIT:          0  MISS:          0  HIT %:       -nan  MISS %:       -nan   MPKI: 0
L1I WRITEBACK ACCESS:          0  HIT:          0  MISS:          0  HIT %:       -nan  MISS %:       -nan   MPKI: 0
L2C TOTAL     ACCESS:    8922075  HIT:    6988791  MISS:    1933284  HIT %:    78.3315  MISS %:    21.6685   MPKI: 9.32249
L2C LOAD      ACCESS:    1479015  HIT:     370872  MISS:    1108143  HIT %:    25.0756  MISS %:    74.9244   MPKI: 5.34357
L2C RFO       ACCESS:     163727  HIT:      54641  MISS:     109086  HIT %:    33.3732  MISS %:    66.6268   MPKI: 0.526023
L2C PREFETCH  ACCESS:    1140776  HIT:     705200  MISS:     435576  HIT %:    61.8176  MISS %:    38.1824   MPKI: 2.10039
L2C WRITEBACK ACCESS:     469788  HIT:     438229  MISS:      31559  HIT %:    93.2823  MISS %:    6.71771   MPKI: 0.152181
PSCL5 TOTAL     ACCESS:    5180607  HIT:    5180607  MISS:          0  HIT %:        100  MISS %:          0   MPKI: 0
PSCL5 LOAD      ACCESS:          0  HIT:          0  MISS:          0  HIT %:       -nan  MISS %:       -nan   MPKI: 0
PSCL5 RFO       ACCESS:          0  HIT:          0  MISS:          0  HIT %:       -nan  MISS %:       -nan   MPKI: 0
PSCL5 PREFETCH  ACCESS:          0  HIT:          0  MISS:          0  HIT %:       -nan  MISS %:       -nan   MPKI: 0
PSCL5 WRITEBACK ACCESS:          0  HIT:          0  MISS:          0  HIT %:       -nan  MISS %:       -nan   MPKI: 0
PSCL4 TOTAL     ACCESS:    5087563  HIT:    5086945  MISS:        618  HIT %:    99.9879  MISS %:  0.0121473   MPKI: 0.00298006
PSCL4 LOAD      ACCESS:          0  HIT:          0  MISS:          0  HIT %:       -nan  MISS %:       -nan   MPKI: 0
PSCL4 RFO       ACCESS:          0  HIT:          0  MISS:          0  HIT %:       -nan  MISS %:       -nan   MPKI: 0
PSCL4 PREFETCH  ACCESS:          0  HIT:          0  MISS:          0  HIT %:       -nan  MISS %:       -nan   MPKI: 0
PSCL4 WRITEBACK ACCESS:          0  HIT:          0  MISS:          0  HIT %:       -nan  MISS %:       -nan   MPKI: 0
PSCL3 TOTAL     ACCESS:    5168851  HIT:    5165141  MISS:       3710  HIT %:    99.9282  MISS %:  0.0717761   MPKI: 0.01789
PSCL3 LOAD      ACCESS:          0  HIT:          0  MISS:          0  HIT %:       -nan  MISS %:       -nan   MPKI: 0
PSCL3 RFO       ACCESS:          0  HIT:          0  MISS:          0  HIT %:       -nan  MISS %:       -nan   MPKI: 0
PSCL3 PREFETCH  ACCESS:          0  HIT:          0  MISS:          0  HIT %:       -nan  MISS %:       -nan   MPKI: 0
PSCL3 WRITEBACK ACCESS:          0  HIT:          0  MISS:          0  HIT %:       -nan  MISS %:       -nan   MPKI: 0
PSCL2 TOTAL     ACCESS:    5180318  HIT:    4696574  MISS:     483744  HIT %:    90.6619  MISS %:    9.33811   MPKI: 2.33266
PSCL2 LOAD      ACCESS:          0  HIT:          0  MISS:          0  HIT %:       -nan  MISS %:       -nan   MPKI: 0
PSCL2 RFO       ACCESS:          0  HIT:          0  MISS:          0  HIT %:       -nan  MISS %:       -nan   MPKI: 0
PSCL2 PREFETCH  ACCESS:          0  HIT:          0  MISS:          0  HIT %:       -nan  MISS %:       -nan   MPKI: 0
PSCL2 WRITEBACK ACCESS:          0  HIT:          0  MISS:          0  HIT %:       -nan  MISS %:       -nan   MPKI: 0
LLC TOTAL     ACCESS:    2309916  HIT:     902657  MISS:    1407259  HIT %:    39.0775  MISS %:    60.9225   MPKI: 6.78594
LLC LOAD      ACCESS:    1098581  HIT:     348465  MISS:     750116  HIT %:    31.7196  MISS %:    68.2804   MPKI: 3.61713
LLC RFO       ACCESS:     108667  HIT:      24762  MISS:      83905  HIT %:     22.787  MISS %:     77.213   MPKI: 0.404598
LLC PREFETCH  ACCESS:     445557  HIT:      16612  MISS:     428945  HIT %:    3.72837  MISS %:    96.2716   MPKI: 2.06842
LLC WRITEBACK ACCESS:     408191  HIT:     384453  MISS:      23738  HIT %:    94.1846  MISS %:    5.81541   MPKI: 0.114467

RAW hits: 1269651
Loads Generated: 27242192
Loads sent to L1D: 25972541
Stores Generated: 7883557
Stores sent to L1D: 7883556

CPU 3 cumulative IPC: 0.61914 instructions: 218378619 cycles: 352713057
ITLB TOTAL     ACCESS:   33033218  HIT:   31374192  MISS:    1659026  HIT %:    94.9777  MISS %:     5.0223   MPKI: 7.59702
ITLB LOAD      ACCESS:          0  HIT:          0  MISS:          0  HIT %:       -nan  MISS %:       -nan   MPKI: 0
ITLB RFO       ACCESS:          0  HIT:          0  MISS:          0  HIT %:       -nan  MISS %:       -nan   MPKI: 0
ITLB PREFETCH  ACCESS:          0  HIT:          0  MISS:          0  HIT %:       -nan  MISS %:       -nan   MPKI: 0
ITLB WRITEBACK ACCESS:          0  HIT:          0  MISS:          0  HIT %:       -nan  MISS %:       -nan   MPKI: 0
DTLB TOTAL     ACCESS:   18469649  HIT:   11979583  MISS:    6490066  HIT %:    64.8609  MISS %:    35.1391   MPKI: 29.7193
DTLB LOAD      ACCESS:          0  HIT:          0  MISS:          0  HIT %:       -nan  MISS %:       -nan   MPKI: 0
DTLB RFO       ACCESS:          0  HIT:          0  MISS:          0  HIT %:       -nan  MISS %:       -nan   MPKI: 0
DTLB PREFETCH  ACCESS:          0  HIT:          0  MISS:          0  HIT %:       -nan  MISS %:       -nan   MPKI: 0
DTLB WRITEBACK ACCESS:          0  HIT:          0  MISS:          0  HIT %:       -nan  MISS %:       -nan   MPKI: 0
STLB TOTAL     ACCESS:    9909055  HIT:    4740948  MISS:    5168107  HIT %:    47.8446  MISS %:    52.1554   MPKI: 23.6658
STLB LOAD      ACCESS:          0  HIT:          0  MISS:          0  HIT %:       -nan  MISS %:       -nan   MPKI: 0
STLB RFO       ACCESS:          0  HIT:          0  MISS:          0  HIT %:       -nan  MISS %:       -nan   MPKI: 0
STLB PREFETCH  ACCESS:          0  HIT:          0  MISS:          0  HIT %:       -nan  MISS %:       -nan   MPKI: 0
STLB WRITEBACK ACCESS:          0  HIT:          0  MISS:          0  HIT %:       -nan  MISS %:       -nan   MPKI: 0
L1D TOTAL     ACCESS:   27482460  HIT:   25770728  MISS:    1711732  HIT %:    93.7715  MISS %:    6.22845   MPKI: 7.83837
L1D LOAD      ACCESS:   15249646  HIT:   14146756  MISS:    1102890  HIT %:    92.7678  MISS %:    7.23223   MPKI: 5.05036
L1D RFO       ACCESS:    7022136  HIT:    6828879  MISS:     193257  HIT %:    97.2479  MISS %:    2.75211   MPKI: 0.884963
L1D PREFETCH  ACCESS:    5210678  HIT:    4795093  MISS:     415585  HIT %:    92.0244  MISS %:    7.97564   MPKI: 1.90305
L1D WRITEBACK ACCESS:          0  HIT:          0  MISS:          0  HIT %:       -nan  MISS %:       -nan   MPKI: 0
L1I TOTAL     ACCESS:   42084455  HIT:   41671180  MISS:     413275  HIT %:     99.018  MISS %:   0.982013   MPKI: 1.89247
L1I LOAD      ACCESS:   42084455  HIT:   41671180  MISS:     413275  HIT %:     99.018  MISS %:   0.982013   MPKI: 1.89247
L1I RFO       ACCESS:          0  HIT:          0  MISS:          0  HIT %:       -nan  MISS %:       -nan   MPKI: 0
L1I PREFETCH  ACCESS:          0  HIT:          0  MISS:          0  HIT %:       -nan  MISS %:       -nan   MPKI: 0
L1I WRITEBACK ACCESS:          0  HIT:          0  MISS:          0  HIT %:       -nan  MISS %:       -nan   MPKI: 0
L2C TOTAL     ACCESS:    9230984  HIT:    7193382  MISS:    2037602  HIT %:    77.9265  MISS %:    22.0735   MPKI: 9.33059
L2C LOAD      ACCESS:    1510053  HIT:     400397  MISS:    1109656  HIT %:    26.5154  MISS %:    73.4846   MPKI: 5.08134
L2C RFO       ACCESS:     193216  HIT:      64511  MISS:     128705  HIT %:     33.388  MISS %:     66.612   MPKI: 0.589366
L2C PREFETCH  ACCESS:    1378430  HIT:     863136  MISS:     515294  HIT %:    62.6173  MISS %:    37.3827   MPKI: 2.35964
L2C WRITEBACK ACCESS:     511866  HIT:     478900  MISS:      32966  HIT %:    93.5596  MISS %:    6.44036   MPKI: 0.150958
PSCL5 TOTAL     ACCESS:    5203529  HIT:    5203529  MISS:          0  HIT %:        100  MISS %:          0   MPKI: 0
PSCL5 LOAD      ACCESS:          0  HIT:          0  MISS:          0  HIT %:       -nan  MISS %:       -nan   MPKI: 0
PSCL5 RFO       ACCESS:          0  HIT:          0  MISS:          0  HIT %:       -nan  MISS %:       -nan   MPKI: 0
PSCL5 PREFETCH  ACCESS:          0  HIT:          0  MISS:          0  HIT %:       -nan  MISS %:       -nan   MPKI: 0
PSCL5 WRITEBACK ACCESS:          0  HIT:          0  MISS:          0  HIT %:       -nan  MISS %:       -nan   MPKI: 0
PSCL4 TOTAL     ACCESS:    5129404  HIT:    5128669  MISS:        735  HIT %:    99.9857  MISS %:  0.0143292   MPKI: 0.00336571
PSCL4 LOAD      ACCESS:          0  HIT:          0  MISS:          0  HIT %:       -nan  MISS %:       -nan   MPKI: 0
PSCL4 RFO       ACCESS:          0  HIT:          0  MISS:          0  HIT %:       -nan  MISS %:       -nan   MPKI: 0
PSCL4 PREFETCH  ACCESS:          0  HIT:          0  MISS:          0  HIT %:       -nan  MISS %:       -nan   MPKI: 0
PSCL4 WRITEBACK ACCESS:          0  HIT:          0  MISS:          0  HIT %:       -nan  MISS %:       -nan   MPKI: 0
PSCL3 TOTAL     ACCESS:    5191038  HIT:    5187429  MISS:       3609  HIT %:    99.9305  MISS %:  0.0695237   MPKI: 0.0165263
PSCL3 LOAD      ACCESS:          0  HIT:          0  MISS:          0  HIT %:       -nan  MISS %:       -nan   MPKI: 0
PSCL3 RFO       ACCESS:          0  HIT:          0  MISS:          0  HIT %:       -nan  MISS %:       -nan   MPKI: 0
PSCL3 PREFETCH  ACCESS:          0  HIT:          0  MISS:          0  HIT %:       -nan  MISS %:       -nan   MPKI: 0
PSCL3 WRITEBACK ACCESS:          0  HIT:          0  MISS:          0  HIT %:       -nan  MISS %:       -nan   MPKI: 0
PSCL2 TOTAL     ACCESS:    5203408  HIT:    4773816  MISS:     429592  HIT %:     91.744  MISS %:    8.25597   MPKI: 1.96719
PSCL2 LOAD      ACCESS:          0  HIT:          0  MISS:          0  HIT %:       -nan  MISS %:       -nan   MPKI: 0
PSCL2 RFO       ACCESS:          0  HIT:          0  MISS:          0  HIT %:       -nan  MISS %:       -nan   MPKI: 0
PSCL2 PREFETCH  ACCESS:          0  HIT:          0  MISS:          0  HIT %:       -nan  MISS %:       -nan   MPKI: 0
PSCL2 WRITEBACK ACCESS:          0  HIT:          0  MISS:          0  HIT %:       -nan  MISS %:       -nan   MPKI: 0
LLC TOTAL     ACCESS:    2444373  HIT:     990012  MISS:    1454361  HIT %:    40.5017  MISS %:    59.4983   MPKI: 6.65981
LLC LOAD      ACCESS:    1095216  HIT:     378422  MISS:     716794  HIT %:    34.5523  MISS %:    65.4477   MPKI: 3.28235
LLC RFO       ACCESS:     128228  HIT:      35110  MISS:      93118  HIT %:    27.3809  MISS %:    72.6191   MPKI: 0.426406
LLC PREFETCH  ACCESS:     530210  HIT:      22781  MISS:     507429  HIT %:     4.2966  MISS %:    95.7034   MPKI: 2.32362
LLC WRITEBACK ACCESS:     439738  HIT:     416965  MISS:      22773  HIT %:    94.8212  MISS %:    5.17877   MPKI: 0.104282

RAW hits: 1293110
Loads Generated: 28793094
Loads sent to L1D: 27499982
Stores Generated: 8085625
Stores sent to L1D: 8085626

Region of Interest Statistics

CPU 0 cumulative IPC: 0.57079 instructions: 200000002 cycles: 350391700
ITLB TOTAL     ACCESS:   30027709  HIT:   28380588  MISS:    1647121  HIT %:    94.5147  MISS %:    5.48534   MPKI: 8.2356
ITLB LOAD TRANSLATION ACCESS:   30027709  HIT:   28380588  MISS:    1647121  HIT %:    94.5147  MISS %:    5.48534   MPKI: 8.2356
ITLB PREFETCH  REQUESTED:          0  ISSUED:          0  USEFUL:          0  USELESS:          0
ITLB USEFUL LOAD PREFETCHES:          0 PREFETCH ISSUED TO LOWER LEVEL:          0  ACCURACY: -nan
ITLB TIMELY PREFETCHES:          0 LATE PREFETCHES: 0 DROPPED PREFETCHES: 0
ITLB PREFETCHES SAME FILL-ORIGIN LEVEL: 0 DIFFERENT FILL-ORIGIN LEVEL: 0
ITLB AVERAGE MISS LATENCY: 38.4768 cycles
ITLB RQ	ACCESS:   39494219	FORWARD:          0	MERGED:    8460766	TO_CACHE:   31033453

DTLB TOTAL     ACCESS:   17596888  HIT:   10801696  MISS:    6795192  HIT %:    61.3841  MISS %:    38.6159   MPKI: 33.976
DTLB LOAD TRANSLATION ACCESS:   17596888  HIT:   10801696  MISS:    6795192  HIT %:    61.3841  MISS %:    38.6159   MPKI: 33.976
DTLB PREFETCH  REQUESTED:          0  ISSUED:          0  USEFUL:          0  USELESS:          0
DTLB USEFUL LOAD PREFETCHES:          0 PREFETCH ISSUED TO LOWER LEVEL:          0  ACCURACY: -nan
DTLB TIMELY PREFETCHES:          0 LATE PREFETCHES: 0 DROPPED PREFETCHES: 0
DTLB PREFETCHES SAME FILL-ORIGIN LEVEL: 0 DIFFERENT FILL-ORIGIN LEVEL: 0
DTLB AVERAGE MISS LATENCY: 31.6389 cycles
DTLB RQ	ACCESS:   22422433	FORWARD:          0	MERGED:    3961071	TO_CACHE:   18461362

STLB TOTAL     ACCESS:    9214480  HIT:    3839635  MISS:    5374845  HIT %:    41.6696  MISS %:    58.3304   MPKI: 26.8742
STLB LOAD TRANSLATION ACCESS:    8442312  HIT:    3095323  MISS:    5346989  HIT %:    36.6644  MISS %:    63.3356   MPKI: 26.7349
STLB TRANSLATION FROM L1D PREFETCHER ACCESS:     772168  HIT:     744312  MISS:      27856  HIT %:    96.3925  MISS %:    3.60751   MPKI: 0.13928
STLB PREFETCH  REQUESTED:          0  ISSUED:          0  USEFUL:      17727  USELESS:      10234
STLB USEFUL LOAD PREFETCHES:      17727 PREFETCH ISSUED TO LOWER LEVEL:          0  ACCURACY: inf
STLB TIMELY PREFETCHES:      17727 LATE PREFETCHES: 0 DROPPED PREFETCHES: 27545
STLB PREFETCHES SAME FILL-ORIGIN LEVEL: 0 DIFFERENT FILL-ORIGIN LEVEL: 0
STLB AVERAGE MISS LATENCY: 37.7016 cycles
STLB RQ	ACCESS:   11663545	FORWARD:          0	MERGED:    2370409	TO_CACHE:    9293136

STLB Hit, L1D data hit: 0
STLB Hit, L2C data hit: 0
STLB Hit, LLC data hit: 0
STLB Hit, LLC data miss: 0
STLB STLB hints to L2: 0
L1D TOTAL     ACCESS:   23539747  HIT:   21965074  MISS:    1574673  HIT %:    93.3106  MISS %:    6.68942   MPKI: 7.87336
L1D LOAD      ACCESS:   13999769  HIT:   12917638  MISS:    1082131  HIT %:    92.2704  MISS %:    7.72963   MPKI: 5.41065
L1D RFO       ACCESS:    7613822  HIT:    7433370  MISS:     180452  HIT %:    97.6299  MISS %:    2.37006   MPKI: 0.90226
L1D PREFETCH  ACCESS:    1926156  HIT:    1614066  MISS:     312090  HIT %:    83.7973  MISS %:    16.2027   MPKI: 1.56045
L1D PREFETCH  REQUESTED:    7193420  ISSUED:    7131778  USEFUL:     302513  USELESS:      11001
L1D USEFUL LOAD PREFETCHES:     302513 PREFETCH ISSUED TO LOWER LEVEL:    1316303  ACCURACY: 22.982
L1D TIMELY PREFETCHES:     302513 LATE PREFETCHES: 5553 DROPPED PREFETCHES: 86081
L1D PREFETCHES SAME FILL-ORIGIN LEVEL: 321180 DIFFERENT FILL-ORIGIN LEVEL: 995123
L1D AVERAGE MISS LATENCY: 162.7 cycles
L1D RQ	ACCESS:   25208349	FORWARD:          0	MERGED:   10853447	TO_CACHE:   14170656
L1D WQ	ACCESS:    8692195	FORWARD:     184354	MERGED:     440418	TO_CACHE:    8251777
L1D PQ	ACCESS:    3954069	FORWARD:          0	MERGED:     776252	TO_CACHE:    3177709

L1D UNIQUE REGIONS ACCESSED: 0
L1D REGIONS CONFLICTS: 0
L1D Cross Page Prefetch Requests: 1135174
L1D Same Page Prefetch Requests: 4264523
L1D ROI Sum of L1D PQ occupancy: 58133799
L1D PREFETCHES PUSHED FROM L2C: 0
L1I TOTAL     ACCESS:   39075348  HIT:   38625262  MISS:     450086  HIT %:    98.8482  MISS %:    1.15184   MPKI: 2.25043
L1I LOAD      ACCESS:   39075348  HIT:   38625262  MISS:     450086  HIT %:    98.8482  MISS %:    1.15184   MPKI: 2.25043
L1I PREFETCH  REQUESTED:          0  ISSUED:          0  USEFUL:          0  USELESS:          0
L1I USEFUL LOAD PREFETCHES:          0 PREFETCH ISSUED TO LOWER LEVEL:          0  ACCURACY: -nan
L1I TIMELY PREFETCHES:          0 LATE PREFETCHES: 0 DROPPED PREFETCHES: 0
L1I PREFETCHES SAME FILL-ORIGIN LEVEL: 0 DIFFERENT FILL-ORIGIN LEVEL: 0
L1I AVERAGE MISS LATENCY: 75.7999 cycles
L1I RQ	ACCESS:   60705645	FORWARD:          0	MERGED:   21211426	TO_CACHE:   39494219

BTB BRANCH_DIRECT_JUMP	ACCESS:          0  HIT:          0  MISS:          0
BTB BRANCH_INDIRECT	ACCESS:          0  HIT:          0  MISS:          0
BTB BRANCH_CONDITIONAL	ACCESS:          0  HIT:          0  MISS:          0
BTB BRANCH_DIRECT_CALL	ACCESS:          0  HIT:          0  MISS:          0
BTB BRANCH_INDIRECT_CALL	ACCESS:          0  HIT:          0  MISS:          0
BTB BRANCH_RETURN	ACCESS:          0  HIT:          0  MISS:          0
BTB BRANCH_OTHER ACCESS:          0  HIT:          0  MISS:          0

L2C TOTAL     ACCESS:    9099908  HIT:    7198807  MISS:    1901101  HIT %:    79.1086  MISS %:    20.8914   MPKI: 9.5055
L2C LOAD      ACCESS:    1526655  HIT:     403359  MISS:    1123296  HIT %:    26.4211  MISS %:    73.5789   MPKI: 5.61648
L2C DATA LOAD MPKI: 4.3555
L2C INSTRUCTION LOAD MPKI: 1.26098
L2C RFO       ACCESS:     180420  HIT:      64940  MISS:     115480  HIT %:    35.9938  MISS %:    64.0062   MPKI: 0.5774
L2C PREFETCH  ACCESS:    1084112  HIT:     697306  MISS:     386806  HIT %:    64.3205  MISS %:    35.6795   MPKI: 1.93403
L2C DATA PREFETCH MPKI: 1.93403
L2C INSTRUCTION PREFETCH MPKI: 0
L2C WRITEBACK ACCESS:     507777  HIT:     476465  MISS:      31312  HIT %:    93.8335  MISS %:    6.16649   MPKI: 0.15656
L2C LOAD TRANSLATION ACCESS:    5745335  HIT:    5502999  MISS:     242336  HIT %:     95.782  MISS %:    4.21796   MPKI: 1.21168
L2C TRANSLATION FROM L1D PREFETCHER ACCESS:      55609  HIT:      53738  MISS:       1871  HIT %:    96.6354  MISS %:    3.36456   MPKI: 0.009355
L2C PREFETCH  REQUESTED:          0  ISSUED:          0  USEFUL:      90541  USELESS:     299832
L2C USEFUL LOAD PREFETCHES:      90541 PREFETCH ISSUED TO LOWER LEVEL:     400406  ACCURACY: 22.6123
L2C TIMELY PREFETCHES:      90541 LATE PREFETCHES: 11650 DROPPED PREFETCHES: 0
L2C PREFETCHES SAME FILL-ORIGIN LEVEL: 328265 DIFFERENT FILL-ORIGIN LEVEL: 0
L2C AVERAGE MISS LATENCY: 202.464 cycles
L2C RQ	ACCESS:    7555784	FORWARD:          0	MERGED:          0	TO_CACHE:    7555780
L2C WQ	ACCESS:     510193	FORWARD:          4	MERGED:          0	TO_CACHE:     510193
L2C PQ	ACCESS:    1302960	FORWARD:          0	MERGED:       6517	TO_CACHE:    1296443

L2C Instructions Evicting Data 176633
L2C Translations Evicting Data 180864
L2C Data Evicting Data 1032651
L2C Instructions Evicting Instructions 46414
L2C Translations Evicting Instructions 32608
L2C Data Evicting Instructions 171675
L2C Instructions Evicting Translations 32272
L2C Translations Evicting Translations 32647
L2C Data Evicting Translations 177734
L2C Dense regions hint from L2: 0
PSCL5 TOTAL     ACCESS:    5402387  HIT:    5402387  MISS:          0  HIT %:        100  MISS %:          0   MPKI: 0
PSCL5 LOAD TRANSLATION ACCESS:    5346989  HIT:    5346989  MISS:          0  HIT %:        100  MISS %:          0   MPKI: 0
PSCL5 TRANSLATION FROM L1D PREFETCHER ACCESS:      55398  HIT:      55398  MISS:          0  HIT %:        100  MISS %:          0   MPKI: 0
PSCL5 PREFETCH  REQUESTED:          0  ISSUED:          0  USEFUL:          0  USELESS:          0
PSCL5 USEFUL LOAD PREFETCHES:          0 PREFETCH ISSUED TO LOWER LEVEL:          0  ACCURACY: -nan
PSCL5 TIMELY PREFETCHES:          0 LATE PREFETCHES: 0 DROPPED PREFETCHES: 0
PSCL5 PREFETCHES SAME FILL-ORIGIN LEVEL: 0 DIFFERENT FILL-ORIGIN LEVEL: 0

PSCL4 TOTAL     ACCESS:    5354243  HIT:    5353733  MISS:        510  HIT %:    99.9905  MISS %: 0.00952516   MPKI: 0.00255
PSCL4 LOAD TRANSLATION ACCESS:    5301353  HIT:    5300843  MISS:        510  HIT %:    99.9904  MISS %: 0.00962019   MPKI: 0.00255
PSCL4 TRANSLATION FROM L1D PREFETCHER ACCESS:      52890  HIT:      52890  MISS:          0  HIT %:        100  MISS %:          0   MPKI: 0
PSCL4 PREFETCH  REQUESTED:          0  ISSUED:          0  USEFUL:          0  USELESS:          0
PSCL4 USEFUL LOAD PREFETCHES:          0 PREFETCH ISSUED TO LOWER LEVEL:          0  ACCURACY: -nan
PSCL4 TIMELY PREFETCHES:          0 LATE PREFETCHES: 0 DROPPED PREFETCHES: 0
PSCL4 PREFETCHES SAME FILL-ORIGIN LEVEL: 0 DIFFERENT FILL-ORIGIN LEVEL: 0

PSCL3 TOTAL     ACCESS:    5386540  HIT:    5382350  MISS:       4190  HIT %:    99.9222  MISS %:  0.0777865   MPKI: 0.02095
PSCL3 LOAD TRANSLATION ACCESS:    5331205  HIT:    5327015  MISS:       4190  HIT %:    99.9214  MISS %:  0.0785939   MPKI: 0.02095
PSCL3 TRANSLATION FROM L1D PREFETCHER ACCESS:      55335  HIT:      55335  MISS:          0  HIT %:        100  MISS %:          0   MPKI: 0
PSCL3 PREFETCH  REQUESTED:          0  ISSUED:          0  USEFUL:          0  USELESS:          0
PSCL3 USEFUL LOAD PREFETCHES:          0 PREFETCH ISSUED TO LOWER LEVEL:          0  ACCURACY: -nan
PSCL3 TIMELY PREFETCHES:          0 LATE PREFETCHES: 0 DROPPED PREFETCHES: 0
PSCL3 PREFETCHES SAME FILL-ORIGIN LEVEL: 0 DIFFERENT FILL-ORIGIN LEVEL: 0

PSCL2 TOTAL     ACCESS:    5402290  HIT:    5008401  MISS:     393889  HIT %:    92.7089  MISS %:    7.29115   MPKI: 1.96944
PSCL2 LOAD TRANSLATION ACCESS:    5347122  HIT:    4953233  MISS:     393889  HIT %:    92.6336  MISS %:    7.36637   MPKI: 1.96944
PSCL2 TRANSLATION FROM L1D PREFETCHER ACCESS:      55168  HIT:      55168  MISS:          0  HIT %:        100  MISS %:          0   MPKI: 0
PSCL2 PREFETCH  REQUESTED:          0  ISSUED:          0  USEFUL:          0  USELESS:          0
PSCL2 USEFUL LOAD PREFETCHES:          0 PREFETCH ISSUED TO LOWER LEVEL:          0  ACCURACY: -nan
PSCL2 TIMELY PREFETCHES:          0 LATE PREFETCHES: 0 DROPPED PREFETCHES: 0
PSCL2 PREFETCHES SAME FILL-ORIGIN LEVEL: 0 DIFFERENT FILL-ORIGIN LEVEL: 0

LLC TOTAL     ACCESS:    2294892  HIT:     909809  MISS:    1385083  HIT %:     39.645  MISS %:     60.355   MPKI: 6.92541
LLC LOAD      ACCESS:    1112481  HIT:     343890  MISS:     768591  HIT %:     30.912  MISS %:     69.088   MPKI: 3.84295
LLC RFO       ACCESS:     114653  HIT:      21062  MISS:      93591  HIT %:    18.3702  MISS %:    81.6298   MPKI: 0.467955
LLC PREFETCH  ACCESS:     398448  HIT:      17864  MISS:     380584  HIT %:     4.4834  MISS %:    95.5166   MPKI: 1.90292
LLC WRITEBACK ACCESS:     425103  HIT:     400630  MISS:      24473  HIT %:     94.243  MISS %:    5.75696   MPKI: 0.122365
LLC LOAD TRANSLATION ACCESS:     242336  HIT:     126272  MISS:     116064  HIT %:    52.1062  MISS %:    47.8938   MPKI: 0.58032
LLC TRANSLATION FROM L1D PREFETCHER ACCESS:       1871  HIT:         91  MISS:       1780  HIT %:    4.86371  MISS %:    95.1363   MPKI: 0.0089
LLC PREFETCH  REQUESTED:          0  ISSUED:          0  USEFUL:      36751  USELESS:    1804992
LLC USEFUL LOAD PREFETCHES:      36751 PREFETCH ISSUED TO LOWER LEVEL:    1836635  ACCURACY: 2.001
LLC TIMELY PREFETCHES:      36751 LATE PREFETCHES: 0 DROPPED PREFETCHES: 0
LLC PREFETCHES SAME FILL-ORIGIN LEVEL: 0 DIFFERENT FILL-ORIGIN LEVEL: 0
LLC AVERAGE MISS LATENCY: 987.555 cycles
LLC RQ	ACCESS:    5969016	FORWARD:          0	MERGED:          0	TO_CACHE:    5969014
LLC WQ	ACCESS:    1785822	FORWARD:          2	MERGED:          0	TO_CACHE:    1785822
LLC PQ	ACCESS:    1911592	FORWARD:          0	MERGED:          0	TO_CACHE:    1911592

LLC Dense regions hint to LLC: 0

RAW hits: 1265931
Loads Generated: 26333368
Loads sent to L1D: 25067437
Stores Generated: 8641251
Stores sent to L1D: 8641251
Major fault: 0 Minor fault: 47322
Allocated PAGES: 190112

CPU 1 cumulative IPC: 0.567033 instructions: 200000000 cycles: 352713056
ITLB TOTAL     ACCESS:   30493066  HIT:   28787731  MISS:    1705335  HIT %:    94.4075  MISS %:    5.59253   MPKI: 8.52667
ITLB LOAD TRANSLATION ACCESS:   30493066  HIT:   28787731  MISS:    1705335  HIT %:    94.4075  MISS %:    5.59253   MPKI: 8.52667
ITLB PREFETCH  REQUESTED:          0  ISSUED:          0  USEFUL:          0  USELESS:          0
ITLB USEFUL LOAD PREFETCHES:          0 PREFETCH ISSUED TO LOWER LEVEL:          0  ACCURACY: -nan
ITLB TIMELY PREFETCHES:          0 LATE PREFETCHES: 0 DROPPED PREFETCHES: 0
ITLB PREFETCHES SAME FILL-ORIGIN LEVEL: 0 DIFFERENT FILL-ORIGIN LEVEL: 0
ITLB AVERAGE MISS LATENCY: 37.9777 cycles
ITLB RQ	ACCESS:   39220883	FORWARD:          0	MERGED:    7867781	TO_CACHE:   31353102

DTLB TOTAL     ACCESS:   18087835  HIT:   11494028  MISS:    6593807  HIT %:    63.5456  MISS %:    36.4544   MPKI: 32.969
DTLB LOAD TRANSLATION ACCESS:   18087835  HIT:   11494028  MISS:    6593807  HIT %:    63.5456  MISS %:    36.4544   MPKI: 32.969
DTLB PREFETCH  REQUESTED:          0  ISSUED:          0  USEFUL:          0  USELESS:          0
DTLB USEFUL LOAD PREFETCHES:          0 PREFETCH ISSUED TO LOWER LEVEL:          0  ACCURACY: -nan
DTLB TIMELY PREFETCHES:          0 LATE PREFETCHES: 0 DROPPED PREFETCHES: 0
DTLB PREFETCHES SAME FILL-ORIGIN LEVEL: 0 DIFFERENT FILL-ORIGIN LEVEL: 0
DTLB AVERAGE MISS LATENCY: 31.6885 cycles
DTLB RQ	ACCESS:   22650947	FORWARD:          0	MERGED:    3811566	TO_CACHE:   18839381

STLB TOTAL     ACCESS:    9720733  HIT:    4413156  MISS:    5307577  HIT %:    45.3994  MISS %:    54.6006   MPKI: 26.5379
STLB LOAD TRANSLATION ACCESS:    8299142  HIT:    3018203  MISS:    5280939  HIT %:    36.3677  MISS %:    63.6323   MPKI: 26.4047
STLB TRANSLATION FROM L1D PREFETCHER ACCESS:    1421591  HIT:    1394953  MISS:      26638  HIT %:    98.1262  MISS %:    1.87382   MPKI: 0.13319
STLB PREFETCH  REQUESTED:          0  ISSUED:          0  USEFUL:      20855  USELESS:       5783
STLB USEFUL LOAD PREFETCHES:      20855 PREFETCH ISSUED TO LOWER LEVEL:          0  ACCURACY: inf
STLB TIMELY PREFETCHES:      20855 LATE PREFETCHES: 0 DROPPED PREFETCHES: 34453
STLB PREFETCHES SAME FILL-ORIGIN LEVEL: 0 DIFFERENT FILL-ORIGIN LEVEL: 0
STLB AVERAGE MISS LATENCY: 37.622 cycles
STLB RQ	ACCESS:   14524678	FORWARD:          0	MERGED:    4760562	TO_CACHE:    9764116

STLB Hit, L1D data hit: 0
STLB Hit, L2C data hit: 0
STLB Hit, LLC data hit: 0
STLB Hit, LLC data miss: 0
STLB STLB hints to L2: 0
L1D TOTAL     ACCESS:   26137437  HIT:   24360105  MISS:    1777332  HIT %:    93.2001  MISS %:    6.79995   MPKI: 8.88666
L1D LOAD      ACCESS:   14527197  HIT:   13336121  MISS:    1191076  HIT %:    91.8011  MISS %:    8.19894   MPKI: 5.95538
L1D RFO       ACCESS:    7348343  HIT:    7130981  MISS:     217362  HIT %:     97.042  MISS %:    2.95797   MPKI: 1.08681
L1D PREFETCH  ACCESS:    4261897  HIT:    3893003  MISS:     368894  HIT %:    91.3444  MISS %:    8.65563   MPKI: 1.84447
L1D PREFETCH  REQUESTED:   14667802  ISSUED:   14607000  USEFUL:     353726  USELESS:      15170
L1D USEFUL LOAD PREFETCHES:     353726 PREFETCH ISSUED TO LOWER LEVEL:    1658210  ACCURACY: 21.3318
L1D TIMELY PREFETCHES:     353726 LATE PREFETCHES: 8612 DROPPED PREFETCHES: 109563
L1D PREFETCHES SAME FILL-ORIGIN LEVEL: 377579 DIFFERENT FILL-ORIGIN LEVEL: 1280631
L1D AVERAGE MISS LATENCY: 155.806 cycles
L1D RQ	ACCESS:   25689534	FORWARD:          0	MERGED:   10873105	TO_CACHE:   14649352
L1D WQ	ACCESS:    8483880	FORWARD:     167086	MERGED:     482285	TO_CACHE:    8001595
L1D PQ	ACCESS:    8381464	FORWARD:          0	MERGED:    2155919	TO_CACHE:    6225536

L1D UNIQUE REGIONS ACCESSED: 0
L1D REGIONS CONFLICTS: 0
L1D Cross Page Prefetch Requests: 1786775
L1D Same Page Prefetch Requests: 11373313
L1D ROI Sum of L1D PQ occupancy: 95580787
L1D PREFETCHES PUSHED FROM L2C: 0
L1I TOTAL     ACCESS:   38925998  HIT:   38180315  MISS:     745683  HIT %:    98.0844  MISS %:    1.91564   MPKI: 3.72842
L1I LOAD      ACCESS:   38925998  HIT:   38180315  MISS:     745683  HIT %:    98.0844  MISS %:    1.91564   MPKI: 3.72842
L1I PREFETCH  REQUESTED:          0  ISSUED:          0  USEFUL:          0  USELESS:          0
L1I USEFUL LOAD PREFETCHES:          0 PREFETCH ISSUED TO LOWER LEVEL:          0  ACCURACY: -nan
L1I TIMELY PREFETCHES:          0 LATE PREFETCHES: 0 DROPPED PREFETCHES: 0
L1I PREFETCHES SAME FILL-ORIGIN LEVEL: 0 DIFFERENT FILL-ORIGIN LEVEL: 0
L1I AVERAGE MISS LATENCY: 55.3709 cycles
L1I RQ	ACCESS:   60886888	FORWARD:          0	MERGED:   21666005	TO_CACHE:   39220883

BTB BRANCH_DIRECT_JUMP	ACCESS:          0  HIT:          0  MISS:          0
BTB BRANCH_INDIRECT	ACCESS:          0  HIT:          0  MISS:          0
BTB BRANCH_CONDITIONAL	ACCESS:          0  HIT:          0  MISS:          0
BTB BRANCH_DIRECT_CALL	ACCESS:          0  HIT:          0  MISS:          0
BTB BRANCH_INDIRECT_CALL	ACCESS:          0  HIT:          0  MISS:          0
BTB BRANCH_RETURN	ACCESS:          0  HIT:          0  MISS:          0
BTB BRANCH_OTHER ACCESS:          0  HIT:          0  MISS:          0

L2C TOTAL     ACCESS:    9799832  HIT:    7671696  MISS:    2128136  HIT %:     78.284  MISS %:     21.716   MPKI: 10.6407
L2C LOAD      ACCESS:    1928133  HIT:     716878  MISS:    1211255  HIT %:    37.1799  MISS %:    62.8201   MPKI: 6.05628
L2C DATA LOAD MPKI: 4.39745
L2C INSTRUCTION LOAD MPKI: 1.65882
L2C RFO       ACCESS:     217282  HIT:      82668  MISS:     134614  HIT %:    38.0464  MISS %:    61.9536   MPKI: 0.67307
L2C PREFETCH  ACCESS:    1256097  HIT:     750604  MISS:     505493  HIT %:    59.7568  MISS %:    40.2432   MPKI: 2.52746
L2C DATA PREFETCH MPKI: 2.52746
L2C INSTRUCTION PREFETCH MPKI: 0
L2C WRITEBACK ACCESS:     617219  HIT:     579827  MISS:      37392  HIT %:    93.9419  MISS %:    6.05814   MPKI: 0.18696
L2C LOAD TRANSLATION ACCESS:    5719827  HIT:    5483017  MISS:     236810  HIT %:    95.8598  MISS %:    4.14016   MPKI: 1.18405
L2C TRANSLATION FROM L1D PREFETCHER ACCESS:      61274  HIT:      58702  MISS:       2572  HIT %:    95.8025  MISS %:    4.19754   MPKI: 0.01286
L2C PREFETCH  REQUESTED:          0  ISSUED:          0  USEFUL:     143674  USELESS:     364356
L2C USEFUL LOAD PREFETCHES:     143674 PREFETCH ISSUED TO LOWER LEVEL:     535419  ACCURACY: 26.8339
L2C TIMELY PREFETCHES:     143674 LATE PREFETCHES: 29924 DROPPED PREFETCHES: 0
L2C PREFETCHES SAME FILL-ORIGIN LEVEL: 395092 DIFFERENT FILL-ORIGIN LEVEL: 0
L2C AVERAGE MISS LATENCY: 199.666 cycles
L2C RQ	ACCESS:    7926539	FORWARD:          0	MERGED:          0	TO_CACHE:    7926526
L2C WQ	ACCESS:     617219	FORWARD:         13	MERGED:          0	TO_CACHE:     617219
L2C PQ	ACCESS:    1640896	FORWARD:          0	MERGED:       9433	TO_CACHE:    1631463

L2C Instructions Evicting Data 215785
L2C Translations Evicting Data 172190
L2C Data Evicting Data 1142355
L2C Instructions Evicting Instructions 79446
L2C Translations Evicting Instructions 36235
L2C Data Evicting Instructions 208688
L2C Instructions Evicting Translations 36534
L2C Translations Evicting Translations 30957
L2C Data Evicting Translations 168554
L2C Dense regions hint from L2: 0
PSCL5 TOTAL     ACCESS:    5342030  HIT:    5342030  MISS:          0  HIT %:        100  MISS %:          0   MPKI: 0
PSCL5 LOAD TRANSLATION ACCESS:    5280939  HIT:    5280939  MISS:          0  HIT %:        100  MISS %:          0   MPKI: 0
PSCL5 TRANSLATION FROM L1D PREFETCHER ACCESS:      61091  HIT:      61091  MISS:          0  HIT %:        100  MISS %:          0   MPKI: 0
PSCL5 PREFETCH  REQUESTED:          0  ISSUED:          0  USEFUL:          0  USELESS:          0
PSCL5 USEFUL LOAD PREFETCHES:          0 PREFETCH ISSUED TO LOWER LEVEL:          0  ACCURACY: -nan
PSCL5 TIMELY PREFETCHES:          0 LATE PREFETCHES: 0 DROPPED PREFETCHES: 0
PSCL5 PREFETCHES SAME FILL-ORIGIN LEVEL: 0 DIFFERENT FILL-ORIGIN LEVEL: 0

PSCL4 TOTAL     ACCESS:    5292355  HIT:    5291780  MISS:        575  HIT %:    99.9891  MISS %:  0.0108647   MPKI: 0.002875
PSCL4 LOAD TRANSLATION ACCESS:    5235589  HIT:    5235014  MISS:        575  HIT %:     99.989  MISS %:  0.0109825   MPKI: 0.002875
PSCL4 TRANSLATION FROM L1D PREFETCHER ACCESS:      56766  HIT:      56766  MISS:          0  HIT %:        100  MISS %:          0   MPKI: 0
PSCL4 PREFETCH  REQUESTED:          0  ISSUED:          0  USEFUL:          0  USELESS:          0
PSCL4 USEFUL LOAD PREFETCHES:          0 PREFETCH ISSUED TO LOWER LEVEL:          0  ACCURACY: -nan
PSCL4 TIMELY PREFETCHES:          0 LATE PREFETCHES: 0 DROPPED PREFETCHES: 0
PSCL4 PREFETCHES SAME FILL-ORIGIN LEVEL: 0 DIFFERENT FILL-ORIGIN LEVEL: 0

PSCL3 TOTAL     ACCESS:    5321639  HIT:    5314886  MISS:       6753  HIT %:    99.8731  MISS %:   0.126897   MPKI: 0.033765
PSCL3 LOAD TRANSLATION ACCESS:    5260621  HIT:    5253868  MISS:       6753  HIT %:    99.8716  MISS %:   0.128369   MPKI: 0.033765
PSCL3 TRANSLATION FROM L1D PREFETCHER ACCESS:      61018  HIT:      61018  MISS:          0  HIT %:        100  MISS %:          0   MPKI: 0
PSCL3 PREFETCH  REQUESTED:          0  ISSUED:          0  USEFUL:          0  USELESS:          0
PSCL3 USEFUL LOAD PREFETCHES:          0 PREFETCH ISSUED TO LOWER LEVEL:          0  ACCURACY: -nan
PSCL3 TIMELY PREFETCHES:          0 LATE PREFETCHES: 0 DROPPED PREFETCHES: 0
PSCL3 PREFETCHES SAME FILL-ORIGIN LEVEL: 0 DIFFERENT FILL-ORIGIN LEVEL: 0

PSCL2 TOTAL     ACCESS:    5341842  HIT:    4910064  MISS:     431778  HIT %:    91.9171  MISS %:    8.08294   MPKI: 2.15889
PSCL2 LOAD TRANSLATION ACCESS:    5281036  HIT:    4849258  MISS:     431778  HIT %:     91.824  MISS %:    8.17601   MPKI: 2.15889
PSCL2 TRANSLATION FROM L1D PREFETCHER ACCESS:      60806  HIT:      60806  MISS:          0  HIT %:        100  MISS %:          0   MPKI: 0
PSCL2 PREFETCH  REQUESTED:          0  ISSUED:          0  USEFUL:          0  USELESS:          0
PSCL2 USEFUL LOAD PREFETCHES:          0 PREFETCH ISSUED TO LOWER LEVEL:          0  ACCURACY: -nan
PSCL2 TIMELY PREFETCHES:          0 LATE PREFETCHES: 0 DROPPED PREFETCHES: 0
PSCL2 PREFETCHES SAME FILL-ORIGIN LEVEL: 0 DIFFERENT FILL-ORIGIN LEVEL: 0

LLC TOTAL     ACCESS:    2601494  HIT:    1092867  MISS:    1508627  HIT %:    42.0092  MISS %:    57.9908   MPKI: 7.54314
LLC LOAD      ACCESS:    1181865  HIT:     415759  MISS:     766106  HIT %:    35.1782  MISS %:    64.8218   MPKI: 3.83053
LLC RFO       ACCESS:     134079  HIT:      43946  MISS:      90133  HIT %:    32.7762  MISS %:    67.2238   MPKI: 0.450665
LLC PREFETCH  ACCESS:     535417  HIT:      21963  MISS:     513454  HIT %:    4.10204  MISS %:     95.898   MPKI: 2.56727
LLC WRITEBACK ACCESS:     510751  HIT:     489137  MISS:      21614  HIT %:    95.7682  MISS %:    4.23181   MPKI: 0.10807
LLC LOAD TRANSLATION ACCESS:     236810  HIT:     121712  MISS:     115098  HIT %:    51.3965  MISS %:    48.6035   MPKI: 0.57549
LLC TRANSLATION FROM L1D PREFETCHER ACCESS:       2572  HIT:        350  MISS:       2222  HIT %:    13.6081  MISS %:    86.3919   MPKI: 0.01111
LLC PREFETCH  REQUESTED:          0  ISSUED:          0  USEFUL:      36751  USELESS:    1804992
LLC USEFUL LOAD PREFETCHES:      36751 PREFETCH ISSUED TO LOWER LEVEL:    1836635  ACCURACY: 2.001
LLC TIMELY PREFETCHES:      36751 LATE PREFETCHES: 0 DROPPED PREFETCHES: 0
LLC PREFETCHES SAME FILL-ORIGIN LEVEL: 0 DIFFERENT FILL-ORIGIN LEVEL: 0
LLC AVERAGE MISS LATENCY: 906.683 cycles
LLC RQ	ACCESS:    5969016	FORWARD:          0	MERGED:          0	TO_CACHE:    5969014
LLC WQ	ACCESS:    1785822	FORWARD:          2	MERGED:          0	TO_CACHE:    1785822
LLC PQ	ACCESS:    1911592	FORWARD:          0	MERGED:          0	TO_CACHE:    1911592

LLC Dense regions hint to LLC: 0

RAW hits: 1385615
Loads Generated: 27075150
Loads sent to L1D: 25689534
Stores Generated: 8483873
Stores sent to L1D: 8483880
Major fault: 0 Minor fault: 46937
Allocated PAGES: 190112

CPU 2 cumulative IPC: 0.588112 instructions: 200000002 cycles: 340071302
ITLB TOTAL     ACCESS:   30241454  HIT:   28636947  MISS:    1604507  HIT %:    94.6943  MISS %:    5.30565   MPKI: 8.02253
ITLB LOAD TRANSLATION ACCESS:   30241454  HIT:   28636947  MISS:    1604507  HIT %:    94.6943  MISS %:    5.30565   MPKI: 8.02253
ITLB PREFETCH  REQUESTED:          0  ISSUED:          0  USEFUL:          0  USELESS:          0
ITLB USEFUL LOAD PREFETCHES:          0 PREFETCH ISSUED TO LOWER LEVEL:          0  ACCURACY: -nan
ITLB TIMELY PREFETCHES:          0 LATE PREFETCHES: 0 DROPPED PREFETCHES: 0
ITLB PREFETCHES SAME FILL-ORIGIN LEVEL: 0 DIFFERENT FILL-ORIGIN LEVEL: 0
ITLB AVERAGE MISS LATENCY: 39.2478 cycles
ITLB RQ	ACCESS:   40425661	FORWARD:          0	MERGED:    8300891	TO_CACHE:   32124770

DTLB TOTAL     ACCESS:   17222952  HIT:   10881315  MISS:    6341637  HIT %:    63.1792  MISS %:    36.8208   MPKI: 31.7082
DTLB LOAD TRANSLATION ACCESS:   17222952  HIT:   10881315  MISS:    6341637  HIT %:    63.1792  MISS %:    36.8208   MPKI: 31.7082
DTLB PREFETCH  REQUESTED:          0  ISSUED:          0  USEFUL:          0  USELESS:          0
DTLB USEFUL LOAD PREFETCHES:          0 PREFETCH ISSUED TO LOWER LEVEL:          0  ACCURACY: -nan
DTLB TIMELY PREFETCHES:          0 LATE PREFETCHES: 0 DROPPED PREFETCHES: 0
DTLB PREFETCHES SAME FILL-ORIGIN LEVEL: 0 DIFFERENT FILL-ORIGIN LEVEL: 0
DTLB AVERAGE MISS LATENCY: 32.6056 cycles
DTLB RQ	ACCESS:   22264832	FORWARD:          0	MERGED:    3725919	TO_CACHE:   18538913

STLB TOTAL     ACCESS:    9133668  HIT:    4123067  MISS:    5010601  HIT %:    45.1414  MISS %:    54.8586   MPKI: 25.053
STLB LOAD TRANSLATION ACCESS:    7946144  HIT:    2953401  MISS:    4992743  HIT %:    37.1677  MISS %:    62.8323   MPKI: 24.9637
STLB TRANSLATION FROM L1D PREFETCHER ACCESS:    1187524  HIT:    1169666  MISS:      17858  HIT %:    98.4962  MISS %:     1.5038   MPKI: 0.08929
STLB PREFETCH  REQUESTED:          0  ISSUED:          0  USEFUL:      15226  USELESS:       3010
STLB USEFUL LOAD PREFETCHES:      15226 PREFETCH ISSUED TO LOWER LEVEL:          0  ACCURACY: inf
STLB TIMELY PREFETCHES:      15226 LATE PREFETCHES: 0 DROPPED PREFETCHES: 28801
STLB PREFETCHES SAME FILL-ORIGIN LEVEL: 0 DIFFERENT FILL-ORIGIN LEVEL: 0
STLB AVERAGE MISS LATENCY: 39.2166 cycles
STLB RQ	ACCESS:   13464980	FORWARD:          0	MERGED:    4040248	TO_CACHE:    9424732

STLB Hit, L1D data hit: 0
STLB Hit, L2C data hit: 0
STLB Hit, LLC data hit: 0
STLB Hit, LLC data miss: 0
STLB STLB hints to L2: 0
L1D TOTAL     ACCESS:   24405410  HIT:   22884925  MISS:    1520485  HIT %:    93.7699  MISS %:    6.23011   MPKI: 7.60242
L1D LOAD      ACCESS:   14243893  HIT:   13211447  MISS:    1032446  HIT %:    92.7517  MISS %:    7.24834   MPKI: 5.16223
L1D RFO       ACCESS:    6692270  HIT:    6531823  MISS:     160447  HIT %:    97.6025  MISS %:     2.3975   MPKI: 0.802235
L1D PREFETCH  ACCESS:    3469247  HIT:    3141655  MISS:     327592  HIT %:    90.5573  MISS %:    9.44274   MPKI: 1.63796
L1D PREFETCH  REQUESTED:   12426040  ISSUED:   12388604  USEFUL:     329966  USELESS:      10789
L1D USEFUL LOAD PREFETCHES:     329966 PREFETCH ISSUED TO LOWER LEVEL:    1466128  ACCURACY: 22.5059
L1D TIMELY PREFETCHES:     329966 LATE PREFETCHES: 4409 DROPPED PREFETCHES: 101037
L1D PREFETCHES SAME FILL-ORIGIN LEVEL: 345382 DIFFERENT FILL-ORIGIN LEVEL: 1120746
L1D AVERAGE MISS LATENCY: 171.023 cycles
L1D RQ	ACCESS:   25972541	FORWARD:          0	MERGED:   10970373	TO_CACHE:   14816974
L1D WQ	ACCESS:    7883556	FORWARD:     185215	MERGED:     435698	TO_CACHE:    7447858
L1D PQ	ACCESS:    7091776	FORWARD:          0	MERGED:    1794927	TO_CACHE:    5296828

L1D UNIQUE REGIONS ACCESSED: 0
L1D REGIONS CONFLICTS: 0
L1D Cross Page Prefetch Requests: 1565091
L1D Same Page Prefetch Requests: 9560453
L1D ROI Sum of L1D PQ occupancy: 81872213
L1D PREFETCHES PUSHED FROM L2C: 0
L1I TOTAL     ACCESS:   38878615  HIT:   38473248  MISS:     405367  HIT %:    98.9574  MISS %:    1.04265   MPKI: 2.02683
L1I LOAD      ACCESS:   38878615  HIT:   38473248  MISS:     405367  HIT %:    98.9574  MISS %:    1.04265   MPKI: 2.02683
L1I PREFETCH  REQUESTED:          0  ISSUED:          0  USEFUL:          0  USELESS:          0
L1I USEFUL LOAD PREFETCHES:          0 PREFETCH ISSUED TO LOWER LEVEL:          0  ACCURACY: -nan
L1I TIMELY PREFETCHES:          0 LATE PREFETCHES: 0 DROPPED PREFETCHES: 0
L1I PREFETCHES SAME FILL-ORIGIN LEVEL: 0 DIFFERENT FILL-ORIGIN LEVEL: 0
L1I AVERAGE MISS LATENCY: 73.7673 cycles
L1I RQ	ACCESS:   62201016	FORWARD:          0	MERGED:   21775355	TO_CACHE:   40425661

BTB BRANCH_DIRECT_JUMP	ACCESS:          0  HIT:          0  MISS:          0
BTB BRANCH_INDIRECT	ACCESS:          0  HIT:          0  MISS:          0
BTB BRANCH_CONDITIONAL	ACCESS:          0  HIT:          0  MISS:          0
BTB BRANCH_DIRECT_CALL	ACCESS:          0  HIT:          0  MISS:          0
BTB BRANCH_INDIRECT_CALL	ACCESS:          0  HIT:          0  MISS:          0
BTB BRANCH_RETURN	ACCESS:          0  HIT:          0  MISS:          0
BTB BRANCH_OTHER ACCESS:          0  HIT:          0  MISS:          0

L2C TOTAL     ACCESS:    8667725  HIT:    6801588  MISS:    1866137  HIT %:    78.4703  MISS %:    21.5297   MPKI: 9.33068
L2C LOAD      ACCESS:    1433513  HIT:     364082  MISS:    1069431  HIT %:    25.3979  MISS %:    74.6021   MPKI: 5.34715
L2C DATA LOAD MPKI: 4.14611
L2C INSTRUCTION LOAD MPKI: 1.20104
L2C RFO       ACCESS:     160427  HIT:      54314  MISS:     106113  HIT %:    33.8559  MISS %:    66.1441   MPKI: 0.530565
L2C PREFETCH  ACCESS:    1103736  HIT:     682637  MISS:     421099  HIT %:    61.8479  MISS %:    38.1521   MPKI: 2.10549
L2C DATA PREFETCH MPKI: 2.10549
L2C INSTRUCTION PREFETCH MPKI: 0
L2C WRITEBACK ACCESS:     456760  HIT:     426070  MISS:      30690  HIT %:    93.2809  MISS %:    6.71906   MPKI: 0.15345
L2C LOAD TRANSLATION ACCESS:    5466467  HIT:    5229688  MISS:     236779  HIT %:    95.6685  MISS %:    4.33148   MPKI: 1.18389
L2C TRANSLATION FROM L1D PREFETCHER ACCESS:      46822  HIT:      44797  MISS:       2025  HIT %:    95.6751  MISS %:    4.32489   MPKI: 0.010125
L2C PREFETCH  REQUESTED:          0  ISSUED:          0  USEFUL:      97685  USELESS:     339415
L2C USEFUL LOAD PREFETCHES:      97685 PREFETCH ISSUED TO LOWER LEVEL:     445557  ACCURACY: 21.9242
L2C TIMELY PREFETCHES:      97685 LATE PREFETCHES: 9981 DROPPED PREFETCHES: 0
L2C PREFETCHES SAME FILL-ORIGIN LEVEL: 327886 DIFFERENT FILL-ORIGIN LEVEL: 0
L2C AVERAGE MISS LATENCY: 205.138 cycles
L2C RQ	ACCESS:    7311516	FORWARD:          0	MERGED:          0	TO_CACHE:    7311513
L2C WQ	ACCESS:     469788	FORWARD:          3	MERGED:          0	TO_CACHE:     469788
L2C PQ	ACCESS:    1455697	FORWARD:          0	MERGED:       6148	TO_CACHE:    1449549

L2C Instructions Evicting Data 170399
L2C Translations Evicting Data 183998
L2C Data Evicting Data 1059292
L2C Instructions Evicting Instructions 45126
L2C Translations Evicting Instructions 30761
L2C Data Evicting Instructions 166844
L2C Instructions Evicting Translations 31076
L2C Translations Evicting Translations 34161
L2C Data Evicting Translations 180068
L2C Dense regions hint from L2: 0
PSCL5 TOTAL     ACCESS:    5039275  HIT:    5039275  MISS:          0  HIT %:        100  MISS %:          0   MPKI: 0
PSCL5 LOAD TRANSLATION ACCESS:    4992744  HIT:    4992744  MISS:          0  HIT %:        100  MISS %:          0   MPKI: 0
PSCL5 TRANSLATION FROM L1D PREFETCHER ACCESS:      46531  HIT:      46531  MISS:          0  HIT %:        100  MISS %:          0   MPKI: 0
PSCL5 PREFETCH  REQUESTED:          0  ISSUED:          0  USEFUL:          0  USELESS:          0
PSCL5 USEFUL LOAD PREFETCHES:          0 PREFETCH ISSUED TO LOWER LEVEL:          0  ACCURACY: -nan
PSCL5 TIMELY PREFETCHES:          0 LATE PREFETCHES: 0 DROPPED PREFETCHES: 0
PSCL5 PREFETCHES SAME FILL-ORIGIN LEVEL: 0 DIFFERENT FILL-ORIGIN LEVEL: 0

PSCL4 TOTAL     ACCESS:    4950999  HIT:    4950387  MISS:        612  HIT %:    99.9876  MISS %:  0.0123611   MPKI: 0.00306
PSCL4 LOAD TRANSLATION ACCESS:    4910047  HIT:    4909435  MISS:        612  HIT %:    99.9875  MISS %:  0.0124642   MPKI: 0.00306
PSCL4 TRANSLATION FROM L1D PREFETCHER ACCESS:      40952  HIT:      40952  MISS:          0  HIT %:        100  MISS %:          0   MPKI: 0
PSCL4 PREFETCH  REQUESTED:          0  ISSUED:          0  USEFUL:          0  USELESS:          0
PSCL4 USEFUL LOAD PREFETCHES:          0 PREFETCH ISSUED TO LOWER LEVEL:          0  ACCURACY: -nan
PSCL4 TIMELY PREFETCHES:          0 LATE PREFETCHES: 0 DROPPED PREFETCHES: 0
PSCL4 PREFETCHES SAME FILL-ORIGIN LEVEL: 0 DIFFERENT FILL-ORIGIN LEVEL: 0

PSCL3 TOTAL     ACCESS:    5027757  HIT:    5024109  MISS:       3648  HIT %:    99.9274  MISS %:  0.0725572   MPKI: 0.01824
PSCL3 LOAD TRANSLATION ACCESS:    4981322  HIT:    4977674  MISS:       3648  HIT %:    99.9268  MISS %:  0.0732336   MPKI: 0.01824
PSCL3 TRANSLATION FROM L1D PREFETCHER ACCESS:      46435  HIT:      46435  MISS:          0  HIT %:        100  MISS %:          0   MPKI: 0
PSCL3 PREFETCH  REQUESTED:          0  ISSUED:          0  USEFUL:          0  USELESS:          0
PSCL3 USEFUL LOAD PREFETCHES:          0 PREFETCH ISSUED TO LOWER LEVEL:          0  ACCURACY: -nan
PSCL3 TIMELY PREFETCHES:          0 LATE PREFETCHES: 0 DROPPED PREFETCHES: 0
PSCL3 PREFETCHES SAME FILL-ORIGIN LEVEL: 0 DIFFERENT FILL-ORIGIN LEVEL: 0

PSCL2 TOTAL     ACCESS:    5038987  HIT:    4569321  MISS:     469666  HIT %:    90.6794  MISS %:    9.32064   MPKI: 2.34833
PSCL2 LOAD TRANSLATION ACCESS:    4992836  HIT:    4523170  MISS:     469666  HIT %:    90.5932  MISS %:     9.4068   MPKI: 2.34833
PSCL2 TRANSLATION FROM L1D PREFETCHER ACCESS:      46151  HIT:      46151  MISS:          0  HIT %:        100  MISS %:          0   MPKI: 0
PSCL2 PREFETCH  REQUESTED:          0  ISSUED:          0  USEFUL:          0  USELESS:          0
PSCL2 USEFUL LOAD PREFETCHES:          0 PREFETCH ISSUED TO LOWER LEVEL:          0  ACCURACY: -nan
PSCL2 TIMELY PREFETCHES:          0 LATE PREFETCHES: 0 DROPPED PREFETCHES: 0
PSCL2 PREFETCHES SAME FILL-ORIGIN LEVEL: 0 DIFFERENT FILL-ORIGIN LEVEL: 0

LLC TOTAL     ACCESS:    2231404  HIT:     875617  MISS:    1355787  HIT %:    39.2406  MISS %:    60.7594   MPKI: 6.77893
LLC LOAD      ACCESS:    1059963  HIT:     338331  MISS:     721632  HIT %:    31.9191  MISS %:    68.0809   MPKI: 3.60816
LLC RFO       ACCESS:     105694  HIT:      24425  MISS:      81269  HIT %:    23.1092  MISS %:    76.8908   MPKI: 0.406345
LLC PREFETCH  ACCESS:     430986  HIT:      16284  MISS:     414702  HIT %:    3.77831  MISS %:    96.2217   MPKI: 2.07351
LLC WRITEBACK ACCESS:     395957  HIT:     373200  MISS:      22757  HIT %:    94.2527  MISS %:    5.74734   MPKI: 0.113785
LLC LOAD TRANSLATION ACCESS:     236779  HIT:     123247  MISS:     113532  HIT %:    52.0515  MISS %:    47.9485   MPKI: 0.56766
LLC TRANSLATION FROM L1D PREFETCHER ACCESS:       2025  HIT:        130  MISS:       1895  HIT %:    6.41975  MISS %:    93.5802   MPKI: 0.009475
LLC PREFETCH  REQUESTED:          0  ISSUED:          0  USEFUL:      36751  USELESS:    1804992
LLC USEFUL LOAD PREFETCHES:      36751 PREFETCH ISSUED TO LOWER LEVEL:    1836635  ACCURACY: 2.001
LLC TIMELY PREFETCHES:      36751 LATE PREFETCHES: 0 DROPPED PREFETCHES: 0
LLC PREFETCHES SAME FILL-ORIGIN LEVEL: 0 DIFFERENT FILL-ORIGIN LEVEL: 0
LLC AVERAGE MISS LATENCY: 1008.89 cycles
LLC RQ	ACCESS:    5969016	FORWARD:          0	MERGED:          0	TO_CACHE:    5969014
LLC WQ	ACCESS:    1785822	FORWARD:          2	MERGED:          0	TO_CACHE:    1785822
LLC PQ	ACCESS:    1911592	FORWARD:          0	MERGED:          0	TO_CACHE:    1911592

LLC Dense regions hint to LLC: 0

RAW hits: 1237153
Loads Generated: 26371236
Loads sent to L1D: 25134079
Stores Generated: 7629432
Stores sent to L1D: 7629432
Major fault: 0 Minor fault: 47230
Allocated PAGES: 190112

CPU 3 cumulative IPC: 0.614789 instructions: 200000000 cycles: 325315089
ITLB TOTAL     ACCESS:   30360753  HIT:   28800240  MISS:    1560513  HIT %:    94.8601  MISS %:     5.1399   MPKI: 7.80257
ITLB LOAD TRANSLATION ACCESS:   30360753  HIT:   28800240  MISS:    1560513  HIT %:    94.8601  MISS %:     5.1399   MPKI: 7.80257
ITLB PREFETCH  REQUESTED:          0  ISSUED:          0  USEFUL:          0  USELESS:          0
ITLB USEFUL LOAD PREFETCHES:          0 PREFETCH ISSUED TO LOWER LEVEL:          0  ACCURACY: -nan
ITLB TIMELY PREFETCHES:          0 LATE PREFETCHES: 0 DROPPED PREFETCHES: 0
ITLB PREFETCHES SAME FILL-ORIGIN LEVEL: 0 DIFFERENT FILL-ORIGIN LEVEL: 0
ITLB AVERAGE MISS LATENCY: 40.7913 cycles
ITLB RQ	ACCESS:   42245531	FORWARD:          0	MERGED:    8364915	TO_CACHE:   33880616

DTLB TOTAL     ACCESS:   17061969  HIT:   10994843  MISS:    6067126  HIT %:    64.4406  MISS %:    35.5594   MPKI: 30.3356
DTLB LOAD TRANSLATION ACCESS:   17061969  HIT:   10994843  MISS:    6067126  HIT %:    64.4406  MISS %:    35.5594   MPKI: 30.3356
DTLB PREFETCH  REQUESTED:          0  ISSUED:          0  USEFUL:          0  USELESS:          0
DTLB USEFUL LOAD PREFETCHES:          0 PREFETCH ISSUED TO LOWER LEVEL:          0  ACCURACY: -nan
DTLB TIMELY PREFETCHES:          0 LATE PREFETCHES: 0 DROPPED PREFETCHES: 0
DTLB PREFETCHES SAME FILL-ORIGIN LEVEL: 0 DIFFERENT FILL-ORIGIN LEVEL: 0
DTLB AVERAGE MISS LATENCY: 33.6095 cycles
DTLB RQ	ACCESS:   23036412	FORWARD:          0	MERGED:    3822307	TO_CACHE:   19214105

STLB TOTAL     ACCESS:    9196070  HIT:    4370949  MISS:    4825121  HIT %:    47.5306  MISS %:    52.4694   MPKI: 24.1256
STLB LOAD TRANSLATION ACCESS:    7627639  HIT:    2823421  MISS:    4804218  HIT %:    37.0157  MISS %:    62.9843   MPKI: 24.0211
STLB TRANSLATION FROM L1D PREFETCHER ACCESS:    1568431  HIT:    1547528  MISS:      20903  HIT %:    98.6673  MISS %:    1.33273   MPKI: 0.104515
STLB PREFETCH  REQUESTED:          0  ISSUED:          0  USEFUL:      17716  USELESS:       4585
STLB USEFUL LOAD PREFETCHES:      17716 PREFETCH ISSUED TO LOWER LEVEL:          0  ACCURACY: inf
STLB TIMELY PREFETCHES:      17716 LATE PREFETCHES: 0 DROPPED PREFETCHES: 35422
STLB PREFETCHES SAME FILL-ORIGIN LEVEL: 0 DIFFERENT FILL-ORIGIN LEVEL: 0
STLB AVERAGE MISS LATENCY: 40.3399 cycles
STLB RQ	ACCESS:   15712473	FORWARD:          0	MERGED:    5759684	TO_CACHE:    9952789

STLB Hit, L1D data hit: 0
STLB Hit, L2C data hit: 0
STLB Hit, LLC data hit: 0
STLB Hit, LLC data miss: 0
STLB STLB hints to L2: 0
L1D TOTAL     ACCESS:   25184351  HIT:   23630238  MISS:    1554113  HIT %:    93.8291  MISS %:    6.17095   MPKI: 7.77057
L1D LOAD      ACCESS:   14105884  HIT:   13100196  MISS:    1005688  HIT %:    92.8704  MISS %:    7.12956   MPKI: 5.02844
L1D RFO       ACCESS:    6468039  HIT:    6291383  MISS:     176656  HIT %:    97.2688  MISS %:    2.73121   MPKI: 0.88328
L1D PREFETCH  ACCESS:    4610428  HIT:    4238659  MISS:     371769  HIT %:    91.9363  MISS %:    8.06365   MPKI: 1.85885
L1D PREFETCH  REQUESTED:   17919978  ISSUED:   17872619  USEFUL:     404674  USELESS:      10893
L1D USEFUL LOAD PREFETCHES:     404674 PREFETCH ISSUED TO LOWER LEVEL:    1895144  ACCURACY: 21.3532
L1D TIMELY PREFETCHES:     404674 LATE PREFETCHES: 6100 DROPPED PREFETCHES: 121459
L1D PREFETCHES SAME FILL-ORIGIN LEVEL: 421782 DIFFERENT FILL-ORIGIN LEVEL: 1473362
L1D AVERAGE MISS LATENCY: 176.126 cycles
L1D RQ	ACCESS:   27499982	FORWARD:          0	MERGED:   11907461	TO_CACHE:   15393759
L1D WQ	ACCESS:    8085626	FORWARD:     198782	MERGED:     442973	TO_CACHE:    7642653
L1D PQ	ACCESS:   10309238	FORWARD:          0	MERGED:    2745837	TO_CACHE:    7563381

L1D UNIQUE REGIONS ACCESSED: 0
L1D REGIONS CONFLICTS: 0
L1D Cross Page Prefetch Requests: 1928081
L1D Same Page Prefetch Requests: 13757277
L1D ROI Sum of L1D PQ occupancy: 110454371
L1D PREFETCHES PUSHED FROM L2C: 0
L1I TOTAL     ACCESS:   38669480  HIT:   38290816  MISS:     378664  HIT %:    99.0208  MISS %:   0.979232   MPKI: 1.89332
L1I LOAD      ACCESS:   38669480  HIT:   38290816  MISS:     378664  HIT %:    99.0208  MISS %:   0.979232   MPKI: 1.89332
L1I PREFETCH  REQUESTED:          0  ISSUED:          0  USEFUL:          0  USELESS:          0
L1I USEFUL LOAD PREFETCHES:          0 PREFETCH ISSUED TO LOWER LEVEL:          0  ACCURACY: -nan
L1I TIMELY PREFETCHES:          0 LATE PREFETCHES: 0 DROPPED PREFETCHES: 0
L1I PREFETCHES SAME FILL-ORIGIN LEVEL: 0 DIFFERENT FILL-ORIGIN LEVEL: 0
L1I AVERAGE MISS LATENCY: 73.8425 cycles
L1I RQ	ACCESS:   65186491	FORWARD:          0	MERGED:   22940960	TO_CACHE:   42245531

BTB BRANCH_DIRECT_JUMP	ACCESS:          0  HIT:          0  MISS:          0
BTB BRANCH_INDIRECT	ACCESS:          0  HIT:          0  MISS:          0
BTB BRANCH_CONDITIONAL	ACCESS:          0  HIT:          0  MISS:          0
BTB BRANCH_DIRECT_CALL	ACCESS:          0  HIT:          0  MISS:          0
BTB BRANCH_INDIRECT_CALL	ACCESS:          0  HIT:          0  MISS:          0
BTB BRANCH_RETURN	ACCESS:          0  HIT:          0  MISS:          0
BTB BRANCH_OTHER ACCESS:          0  HIT:          0  MISS:          0

L2C TOTAL     ACCESS:    8521867  HIT:    6666081  MISS:    1855786  HIT %:    78.2232  MISS %:    21.7768   MPKI: 9.27893
L2C LOAD      ACCESS:    1378694  HIT:     365706  MISS:    1012988  HIT %:    26.5255  MISS %:    73.4745   MPKI: 5.06494
L2C DATA LOAD MPKI: 3.94797
L2C INSTRUCTION LOAD MPKI: 1.11697
L2C RFO       ACCESS:     176615  HIT:      59439  MISS:     117176  HIT %:    33.6546  MISS %:    66.3454   MPKI: 0.58588
L2C PREFETCH  ACCESS:    1243461  HIT:     776980  MISS:     466481  HIT %:    62.4853  MISS %:    37.5147   MPKI: 2.33241
L2C DATA PREFETCH MPKI: 2.33241
L2C INSTRUCTION PREFETCH MPKI: 0
L2C WRITEBACK ACCESS:     470275  HIT:     439800  MISS:      30475  HIT %:    93.5197  MISS %:    6.48025   MPKI: 0.152375
L2C LOAD TRANSLATION ACCESS:    5196935  HIT:    4970256  MISS:     226679  HIT %:    95.6382  MISS %:    4.36178   MPKI: 1.13339
L2C TRANSLATION FROM L1D PREFETCHER ACCESS:      55887  HIT:      53900  MISS:       1987  HIT %:    96.4446  MISS %:    3.55539   MPKI: 0.009935
L2C PREFETCH  REQUESTED:          0  ISSUED:          0  USEFUL:     122207  USELESS:     394330
L2C USEFUL LOAD PREFETCHES:     122207 PREFETCH ISSUED TO LOWER LEVEL:     530210  ACCURACY: 23.0488
L2C TIMELY PREFETCHES:     122207 LATE PREFETCHES: 14916 DROPPED PREFETCHES: 0
L2C PREFETCHES SAME FILL-ORIGIN LEVEL: 366232 DIFFERENT FILL-ORIGIN LEVEL: 0
L2C AVERAGE MISS LATENCY: 216.173 cycles
L2C RQ	ACCESS:    7340703	FORWARD:          0	MERGED:          0	TO_CACHE:    7340696
L2C WQ	ACCESS:     511866	FORWARD:          8	MERGED:          0	TO_CACHE:     511866
L2C PQ	ACCESS:    1887324	FORWARD:          0	MERGED:       9664	TO_CACHE:    1877659

L2C Instructions Evicting Data 174543
L2C Translations Evicting Data 188641
L2C Data Evicting Data 1152517
L2C Instructions Evicting Instructions 41641
L2C Translations Evicting Instructions 28222
L2C Data Evicting Instructions 171484
L2C Instructions Evicting Translations 29042
L2C Translations Evicting Translations 34118
L2C Data Evicting Translations 184428
L2C Dense regions hint from L2: 0
PSCL5 TOTAL     ACCESS:    4859928  HIT:    4859928  MISS:          0  HIT %:        100  MISS %:          0   MPKI: 0
PSCL5 LOAD TRANSLATION ACCESS:    4804219  HIT:    4804219  MISS:          0  HIT %:        100  MISS %:          0   MPKI: 0
PSCL5 TRANSLATION FROM L1D PREFETCHER ACCESS:      55709  HIT:      55709  MISS:          0  HIT %:        100  MISS %:          0   MPKI: 0
PSCL5 PREFETCH  REQUESTED:          0  ISSUED:          0  USEFUL:          0  USELESS:          0
PSCL5 USEFUL LOAD PREFETCHES:          0 PREFETCH ISSUED TO LOWER LEVEL:          0  ACCURACY: -nan
PSCL5 TIMELY PREFETCHES:          0 LATE PREFETCHES: 0 DROPPED PREFETCHES: 0
PSCL5 PREFETCHES SAME FILL-ORIGIN LEVEL: 0 DIFFERENT FILL-ORIGIN LEVEL: 0

PSCL4 TOTAL     ACCESS:    4791470  HIT:    4790810  MISS:        660  HIT %:    99.9862  MISS %:  0.0137745   MPKI: 0.0033
PSCL4 LOAD TRANSLATION ACCESS:    4736847  HIT:    4736187  MISS:        660  HIT %:    99.9861  MISS %:  0.0139333   MPKI: 0.0033
PSCL4 TRANSLATION FROM L1D PREFETCHER ACCESS:      54623  HIT:      54623  MISS:          0  HIT %:        100  MISS %:          0   MPKI: 0
PSCL4 PREFETCH  REQUESTED:          0  ISSUED:          0  USEFUL:          0  USELESS:          0
PSCL4 USEFUL LOAD PREFETCHES:          0 PREFETCH ISSUED TO LOWER LEVEL:          0  ACCURACY: -nan
PSCL4 TIMELY PREFETCHES:          0 LATE PREFETCHES: 0 DROPPED PREFETCHES: 0
PSCL4 PREFETCHES SAME FILL-ORIGIN LEVEL: 0 DIFFERENT FILL-ORIGIN LEVEL: 0

PSCL3 TOTAL     ACCESS:    4848614  HIT:    4845297  MISS:       3317  HIT %:    99.9316  MISS %:  0.0684113   MPKI: 0.016585
PSCL3 LOAD TRANSLATION ACCESS:    4793026  HIT:    4789709  MISS:       3317  HIT %:    99.9308  MISS %:  0.0692047   MPKI: 0.016585
PSCL3 TRANSLATION FROM L1D PREFETCHER ACCESS:      55588  HIT:      55588  MISS:          0  HIT %:        100  MISS %:          0   MPKI: 0
PSCL3 PREFETCH  REQUESTED:          0  ISSUED:          0  USEFUL:          0  USELESS:          0
PSCL3 USEFUL LOAD PREFETCHES:          0 PREFETCH ISSUED TO LOWER LEVEL:          0  ACCURACY: -nan
PSCL3 TIMELY PREFETCHES:          0 LATE PREFETCHES: 0 DROPPED PREFETCHES: 0
PSCL3 PREFETCHES SAME FILL-ORIGIN LEVEL: 0 DIFFERENT FILL-ORIGIN LEVEL: 0

PSCL2 TOTAL     ACCESS:    4859807  HIT:    4470844  MISS:     388963  HIT %:    91.9963  MISS %:    8.00367   MPKI: 1.94481
PSCL2 LOAD TRANSLATION ACCESS:    4804310  HIT:    4415347  MISS:     388963  HIT %:    91.9039  MISS %:    8.09613   MPKI: 1.94481
PSCL2 TRANSLATION FROM L1D PREFETCHER ACCESS:      55497  HIT:      55497  MISS:          0  HIT %:        100  MISS %:          0   MPKI: 0
PSCL2 PREFETCH  REQUESTED:          0  ISSUED:          0  USEFUL:          0  USELESS:          0
PSCL2 USEFUL LOAD PREFETCHES:          0 PREFETCH ISSUED TO LOWER LEVEL:          0  ACCURACY: -nan
PSCL2 TIMELY PREFETCHES:          0 LATE PREFETCHES: 0 DROPPED PREFETCHES: 0
PSCL2 PREFETCHES SAME FILL-ORIGIN LEVEL: 0 DIFFERENT FILL-ORIGIN LEVEL: 0

LLC TOTAL     ACCESS:    2230270  HIT:     894326  MISS:    1335944  HIT %:    40.0994  MISS %:    59.9006   MPKI: 6.67972
LLC LOAD      ACCESS:     999695  HIT:     336297  MISS:     663398  HIT %:      33.64  MISS %:      66.36   MPKI: 3.31699
LLC RFO       ACCESS:     116699  HIT:      30781  MISS:      85918  HIT %:    26.3764  MISS %:    73.6236   MPKI: 0.42959
LLC PREFETCH  ACCESS:     480250  HIT:      20556  MISS:     459694  HIT %:    4.28027  MISS %:    95.7197   MPKI: 2.29847
LLC WRITEBACK ACCESS:     404960  HIT:     383848  MISS:      21112  HIT %:    94.7866  MISS %:    5.21335   MPKI: 0.10556
LLC LOAD TRANSLATION ACCESS:     226679  HIT:     122755  MISS:     103924  HIT %:    54.1537  MISS %:    45.8463   MPKI: 0.51962
LLC TRANSLATION FROM L1D PREFETCHER ACCESS:       1987  HIT:         89  MISS:       1898  HIT %:    4.47911  MISS %:    95.5209   MPKI: 0.00949
LLC PREFETCH  REQUESTED:          0  ISSUED:          0  USEFUL:      36751  USELESS:    1804992
LLC USEFUL LOAD PREFETCHES:      36751 PREFETCH ISSUED TO LOWER LEVEL:    1836635  ACCURACY: 2.001
LLC TIMELY PREFETCHES:      36751 LATE PREFETCHES: 0 DROPPED PREFETCHES: 0
LLC PREFETCHES SAME FILL-ORIGIN LEVEL: 0 DIFFERENT FILL-ORIGIN LEVEL: 0
LLC AVERAGE MISS LATENCY: 1023.88 cycles
LLC RQ	ACCESS:    5969016	FORWARD:          0	MERGED:          0	TO_CACHE:    5969014
LLC WQ	ACCESS:    1785822	FORWARD:          2	MERGED:          0	TO_CACHE:    1785822
LLC PQ	ACCESS:    1911592	FORWARD:          0	MERGED:          0	TO_CACHE:    1911592

LLC Dense regions hint to LLC: 0

RAW hits: 1222134
Loads Generated: 26597269
Loads sent to L1D: 25375135
Stores Generated: 7447734
Stores sent to L1D: 7447733
Major fault: 0 Minor fault: 48623
Allocated PAGES: 190112

DRAM Statistics
 CHANNEL 0
 RQ ROW_BUFFER_HIT:     461282  ROW_BUFFER_MISS:    5210123
 DBUS_CONGESTED:        217
 WQ ROW_BUFFER_HIT:     280021  ROW_BUFFER_MISS:    1312470  FULL:          0

 AVG_CONGESTED_CYCLE: 5
 All warmup complete: 5
Channel 0 Bank busy for read cycles: 0
Channel 0 Bank busy for write cycles: 0
Channel 0
Rank 0
0banks busy for read cycles: 994551
0banks busy for write cycles: 2867
1banks busy for read cycles: 63022488
1banks busy for write cycles: 830065
2banks busy for read cycles: 84230519
2banks busy for write cycles: 809620
3banks busy for read cycles: 68287669
3banks busy for write cycles: 829464
4banks busy for read cycles: 40992971
4banks busy for write cycles: 924574
5banks busy for read cycles: 20030482
5banks busy for write cycles: 1134656
6banks busy for read cycles: 8857655
6banks busy for write cycles: 1923845
7banks busy for read cycles: 4371301
7banks busy for write cycles: 8338654
8banks busy for read cycles: 4357173
8banks busy for write cycles: 42774503

CPU 0 Branch Prediction Accuracy: 98.8324% MPKI: 1.63445 Average ROB Occupancy at Mispredict: 74.8842
Branch types
NOT_BRANCH: 0 0%
BRANCH_DIRECT_JUMP: 0 0%
BRANCH_INDIRECT: 0 0%
BRANCH_CONDITIONAL: 0 0%
BRANCH_DIRECT_CALL: 0 0%
BRANCH_INDIRECT_CALL: 0 0%
BRANCH_RETURN: 0 0%
BRANCH_OTHER: 0 0%


CPU 1 Branch Prediction Accuracy: 98.8261% MPKI: 1.65896 Average ROB Occupancy at Mispredict: 70.6662
Branch types
NOT_BRANCH: 0 0%
BRANCH_DIRECT_JUMP: 0 0%
BRANCH_INDIRECT: 0 0%
BRANCH_CONDITIONAL: 0 0%
BRANCH_DIRECT_CALL: 0 0%
BRANCH_INDIRECT_CALL: 0 0%
BRANCH_RETURN: 0 0%
BRANCH_OTHER: 0 0%


CPU 2 Branch Prediction Accuracy: 98.9279% MPKI: 1.4977 Average ROB Occupancy at Mispredict: 74.7584
Branch types
NOT_BRANCH: 0 0%
BRANCH_DIRECT_JUMP: 0 0%
BRANCH_INDIRECT: 0 0%
BRANCH_CONDITIONAL: 0 0%
BRANCH_DIRECT_CALL: 0 0%
BRANCH_INDIRECT_CALL: 0 0%
BRANCH_RETURN: 0 0%
BRANCH_OTHER: 0 0%


CPU 3 Branch Prediction Accuracy: 98.9762% MPKI: 1.41983 Average ROB Occupancy at Mispredict: 75.5447
Branch types
NOT_BRANCH: 0 0%
BRANCH_DIRECT_JUMP: 0 0%
BRANCH_INDIRECT: 0 0%
BRANCH_CONDITIONAL: 0 0%
BRANCH_DIRECT_CALL: 0 0%
BRANCH_INDIRECT_CALL: 0 0%
BRANCH_RETURN: 0 0%
BRANCH_OTHER: 0 0%

DRAM PAGES: 1048576
Allocated PAGES: 190112
