
*** ChampSim Multicore Out-of-Order Simulator ***

Warmup Instructions: 50000000
Simulation Instructions: 200000000
Number of CPUs: 4
LLC sets: 8192
LLC ways: 16
Off-chip DRAM Size: 4096 MB Channels: 1 Width: 64-bit Data Rate: 6400 MT/s
CPU 0 runs ./traces/ligra/ligra_Triangle.com-lj.ungraph.gcc_6.3.0_O3.drop_18000M.length_250M.champsimtrace.xz
.xz
CPU 1 runs ./traces/ligra/ligra_BFS.com-lj.ungraph.gcc_6.3.0_O3.drop_500M.length_250M.champsimtrace.xz
.xz
CPU 2 runs ./traces/ligra/ligra_BC.com-lj.ungraph.gcc_6.3.0_O3.drop_3500M.length_250M.champsimtrace.xz
.xz
CPU 3 runs ./traces/ligra/ligra_BFS-Bitvector.com-lj.ungraph.gcc_6.3.0_O3.drop_500M.length_250M.champsimtrace.xz
.xz
BTB has LRU replacement policy
ITLB has LRU replacement policy
DTLB has LRU replacement policy
STLB has LRU replacement policy
L1I has LRU replacement policy
History Sets: 8
History Ways: 16
BERTI Size: 16
BERTI Stride Size: 8
L1D has LRU replacement policy
Initialize SRRIP state for L2C
Initialize DRRIP state for LLC
BTB has LRU replacement policy
ITLB has LRU replacement policy
DTLB has LRU replacement policy
STLB has LRU replacement policy
L1I has LRU replacement policy
History Sets: 8
History Ways: 16
BERTI Size: 16
BERTI Stride Size: 8
L1D has LRU replacement policy
Initialize SRRIP state for L2C
Initialize DRRIP state for LLC
BTB has LRU replacement policy
ITLB has LRU replacement policy
DTLB has LRU replacement policy
STLB has LRU replacement policy
L1I has LRU replacement policy
History Sets: 8
History Ways: 16
BERTI Size: 16
BERTI Stride Size: 8
L1D has LRU replacement policy
Initialize SRRIP state for L2C
Initialize DRRIP state for LLC
BTB has LRU replacement policy
ITLB has LRU replacement policy
DTLB has LRU replacement policy
STLB has LRU replacement policy
L1I has LRU replacement policy
History Sets: 8
History Ways: 16
BERTI Size: 16
BERTI Stride Size: 8
L1D has LRU replacement policy
Initialize SRRIP state for L2C
Initialize DRRIP state for LLC
Heartbeat CPU 3 instructions: 10000002 cycles: 3217830 heartbeat IPC: 3.10769 cumulative IPC: 3.10769 (Simulation time: 0 hr 4 min 39 sec) 
Heartbeat CPU 0 instructions: 10000001 cycles: 3315034 heartbeat IPC: 3.01656 cumulative IPC: 3.01656 (Simulation time: 0 hr 4 min 48 sec) 
Heartbeat CPU 1 instructions: 10000002 cycles: 3333346 heartbeat IPC: 2.99999 cumulative IPC: 2.99999 (Simulation time: 0 hr 4 min 49 sec) 
Heartbeat CPU 2 instructions: 10000002 cycles: 3333347 heartbeat IPC: 2.99999 cumulative IPC: 2.99999 (Simulation time: 0 hr 4 min 49 sec) 
Heartbeat CPU 3 instructions: 20000001 cycles: 6435979 heartbeat IPC: 3.10738 cumulative IPC: 3.10753 (Simulation time: 0 hr 9 min 9 sec) 
Heartbeat CPU 0 instructions: 20000000 cycles: 6636166 heartbeat IPC: 3.01102 cumulative IPC: 3.01379 (Simulation time: 0 hr 9 min 24 sec) 
Heartbeat CPU 1 instructions: 20000000 cycles: 6666679 heartbeat IPC: 3 cumulative IPC: 2.99999 (Simulation time: 0 hr 9 min 26 sec) 
Heartbeat CPU 2 instructions: 20000001 cycles: 6666680 heartbeat IPC: 3 cumulative IPC: 2.99999 (Simulation time: 0 hr 9 min 26 sec) 
Heartbeat CPU 3 instructions: 30000000 cycles: 9655011 heartbeat IPC: 3.10652 cumulative IPC: 3.10719 (Simulation time: 0 hr 12 min 43 sec) 
Heartbeat CPU 0 instructions: 30000003 cycles: 9951424 heartbeat IPC: 3.01636 cumulative IPC: 3.01464 (Simulation time: 0 hr 13 min 2 sec) 
Heartbeat CPU 1 instructions: 30000001 cycles: 10000013 heartbeat IPC: 3 cumulative IPC: 3 (Simulation time: 0 hr 13 min 5 sec) 
Heartbeat CPU 2 instructions: 30000000 cycles: 10000013 heartbeat IPC: 3 cumulative IPC: 3 (Simulation time: 0 hr 13 min 5 sec) 
Heartbeat CPU 3 instructions: 40000002 cycles: 12881796 heartbeat IPC: 3.09906 cumulative IPC: 3.10516 (Simulation time: 0 hr 15 min 52 sec) 
Heartbeat CPU 0 instructions: 40000003 cycles: 13269357 heartbeat IPC: 3.01392 cumulative IPC: 3.01446 (Simulation time: 0 hr 16 min 14 sec) 
Heartbeat CPU 1 instructions: 40000001 cycles: 13333345 heartbeat IPC: 3 cumulative IPC: 3 (Simulation time: 0 hr 16 min 18 sec) 
Heartbeat CPU 2 instructions: 40000000 cycles: 13333346 heartbeat IPC: 3 cumulative IPC: 3 (Simulation time: 0 hr 16 min 18 sec) 
Heartbeat CPU 3 instructions: 50000002 cycles: 16104224 heartbeat IPC: 3.10325 cumulative IPC: 3.10478 (Simulation time: 0 hr 18 min 50 sec) 
Heartbeat CPU 0 instructions: 50000001 cycles: 16583735 heartbeat IPC: 3.01716 cumulative IPC: 3.015 (Simulation time: 0 hr 19 min 14 sec) 
Heartbeat CPU 1 instructions: 50000000 cycles: 16666679 heartbeat IPC: 3 cumulative IPC: 3 (Simulation time: 0 hr 19 min 18 sec) 
Heartbeat CPU 2 instructions: 50000003 cycles: 16666681 heartbeat IPC: 3 cumulative IPC: 3 (Simulation time: 0 hr 19 min 18 sec) 

Warmup complete CPU 0 instructions: 50248685 cycles: 16666681 (Simulation time: 0 hr 19 min 18 sec) 
Warmup complete CPU 1 instructions: 50000006 cycles: 16666681 (Simulation time: 0 hr 19 min 18 sec) 
Warmup complete CPU 2 instructions: 50000003 cycles: 16666681 (Simulation time: 0 hr 19 min 18 sec) 
Warmup complete CPU 3 instructions: 51709685 cycles: 16666680 (Simulation time: 0 hr 19 min 18 sec) 

Heartbeat CPU 3 instructions: 60000002 cycles: 21874915 heartbeat IPC: 1.73289 cumulative IPC: 1.59177 (Simulation time: 0 hr 21 min 54 sec) 
Heartbeat CPU 1 instructions: 60000001 cycles: 25274948 heartbeat IPC: 1.16167 cumulative IPC: 1.16167 (Simulation time: 0 hr 23 min 35 sec) 
Heartbeat CPU 2 instructions: 60000000 cycles: 25417476 heartbeat IPC: 1.14275 cumulative IPC: 1.14275 (Simulation time: 0 hr 23 min 38 sec) 
Heartbeat CPU 0 instructions: 60000002 cycles: 25804593 heartbeat IPC: 1.0845 cumulative IPC: 1.06713 (Simulation time: 0 hr 23 min 50 sec) 
Heartbeat CPU 3 instructions: 70000000 cycles: 28161016 heartbeat IPC: 1.59081 cumulative IPC: 1.59125 (Simulation time: 0 hr 24 min 57 sec) 
Heartbeat CPU 1 instructions: 70000001 cycles: 33906243 heartbeat IPC: 1.15857 cumulative IPC: 1.16012 (Simulation time: 0 hr 27 min 44 sec) 
Heartbeat CPU 2 instructions: 70000001 cycles: 34204299 heartbeat IPC: 1.13807 cumulative IPC: 1.14041 (Simulation time: 0 hr 27 min 52 sec) 
Heartbeat CPU 3 instructions: 80000001 cycles: 34465579 heartbeat IPC: 1.58615 cumulative IPC: 1.58944 (Simulation time: 0 hr 27 min 59 sec) 
Heartbeat CPU 0 instructions: 70000003 cycles: 35768274 heartbeat IPC: 1.00365 cumulative IPC: 1.03401 (Simulation time: 0 hr 28 min 35 sec) 
Heartbeat CPU 3 instructions: 90000001 cycles: 40806377 heartbeat IPC: 1.57709 cumulative IPC: 1.5862 (Simulation time: 0 hr 30 min 57 sec) 
Heartbeat CPU 1 instructions: 80000002 cycles: 42573473 heartbeat IPC: 1.15377 cumulative IPC: 1.158 (Simulation time: 0 hr 31 min 46 sec) 
Heartbeat CPU 2 instructions: 80000001 cycles: 42967041 heartbeat IPC: 1.1412 cumulative IPC: 1.14067 (Simulation time: 0 hr 31 min 56 sec) 
Heartbeat CPU 0 instructions: 80000002 cycles: 45671098 heartbeat IPC: 1.00981 cumulative IPC: 1.02575 (Simulation time: 0 hr 33 min 8 sec) 
Heartbeat CPU 3 instructions: 100000001 cycles: 47054936 heartbeat IPC: 1.60037 cumulative IPC: 1.58911 (Simulation time: 0 hr 33 min 49 sec) 
Heartbeat CPU 1 instructions: 90000002 cycles: 51237659 heartbeat IPC: 1.15418 cumulative IPC: 1.15704 (Simulation time: 0 hr 35 min 44 sec) 
Heartbeat CPU 2 instructions: 90000002 cycles: 51762268 heartbeat IPC: 1.13698 cumulative IPC: 1.13974 (Simulation time: 0 hr 35 min 58 sec) 
Heartbeat CPU 3 instructions: 110000000 cycles: 53282101 heartbeat IPC: 1.60587 cumulative IPC: 1.59196 (Simulation time: 0 hr 36 min 42 sec) 
Heartbeat CPU 0 instructions: 90000000 cycles: 55090827 heartbeat IPC: 1.0616 cumulative IPC: 1.03454 (Simulation time: 0 hr 37 min 34 sec) 
Heartbeat CPU 3 instructions: 120000001 cycles: 59483858 heartbeat IPC: 1.61245 cumulative IPC: 1.59493 (Simulation time: 0 hr 39 min 38 sec) 
Heartbeat CPU 1 instructions: 100000000 cycles: 59832764 heartbeat IPC: 1.16345 cumulative IPC: 1.15832 (Simulation time: 0 hr 39 min 46 sec) 
Heartbeat CPU 2 instructions: 100000001 cycles: 60522014 heartbeat IPC: 1.14159 cumulative IPC: 1.14011 (Simulation time: 0 hr 40 min 7 sec) 
Heartbeat CPU 0 instructions: 100000002 cycles: 65103155 heartbeat IPC: 0.998769 cumulative IPC: 1.02715 (Simulation time: 0 hr 42 min 17 sec) 
Heartbeat CPU 3 instructions: 130000001 cycles: 65785377 heartbeat IPC: 1.58692 cumulative IPC: 1.5939 (Simulation time: 0 hr 42 min 35 sec) 
Heartbeat CPU 1 instructions: 110000000 cycles: 68397208 heartbeat IPC: 1.16762 cumulative IPC: 1.15986 (Simulation time: 0 hr 43 min 52 sec) 
Heartbeat CPU 2 instructions: 110000000 cycles: 69310390 heartbeat IPC: 1.13787 cumulative IPC: 1.13974 (Simulation time: 0 hr 44 min 18 sec) 
Heartbeat CPU 3 instructions: 140000000 cycles: 72197069 heartbeat IPC: 1.55965 cumulative IPC: 1.58995 (Simulation time: 0 hr 45 min 34 sec) 
Heartbeat CPU 0 instructions: 110000000 cycles: 74710647 heartbeat IPC: 1.04085 cumulative IPC: 1.02941 (Simulation time: 0 hr 46 min 43 sec) 
Heartbeat CPU 1 instructions: 120000001 cycles: 76964092 heartbeat IPC: 1.16729 cumulative IPC: 1.16091 (Simulation time: 0 hr 47 min 44 sec) 
Heartbeat CPU 2 instructions: 120000000 cycles: 78124413 heartbeat IPC: 1.13456 cumulative IPC: 1.13899 (Simulation time: 0 hr 48 min 14 sec) 
Heartbeat CPU 3 instructions: 150000001 cycles: 78635970 heartbeat IPC: 1.55306 cumulative IPC: 1.58611 (Simulation time: 0 hr 48 min 28 sec) 
Heartbeat CPU 0 instructions: 120000001 cycles: 84412143 heartbeat IPC: 1.03077 cumulative IPC: 1.02961 (Simulation time: 0 hr 51 min 0 sec) 
Heartbeat CPU 3 instructions: 160000001 cycles: 85212332 heartbeat IPC: 1.5206 cumulative IPC: 1.57983 (Simulation time: 0 hr 51 min 20 sec) 
Heartbeat CPU 1 instructions: 130000000 cycles: 85604805 heartbeat IPC: 1.15731 cumulative IPC: 1.16046 (Simulation time: 0 hr 51 min 30 sec) 
Heartbeat CPU 2 instructions: 130000001 cycles: 86953714 heartbeat IPC: 1.13259 cumulative IPC: 1.13819 (Simulation time: 0 hr 52 min 6 sec) 
Heartbeat CPU 3 instructions: 170000000 cycles: 91904466 heartbeat IPC: 1.49429 cumulative IPC: 1.57222 (Simulation time: 0 hr 54 min 20 sec) 
Heartbeat CPU 0 instructions: 130000000 cycles: 94042779 heartbeat IPC: 1.03835 cumulative IPC: 1.0307 (Simulation time: 0 hr 55 min 19 sec) 
Heartbeat CPU 1 instructions: 140000003 cycles: 94279523 heartbeat IPC: 1.15278 cumulative IPC: 1.1596 (Simulation time: 0 hr 55 min 26 sec) 
Heartbeat CPU 2 instructions: 140000002 cycles: 95767055 heartbeat IPC: 1.13464 cumulative IPC: 1.13779 (Simulation time: 0 hr 56 min 8 sec) 
Heartbeat CPU 3 instructions: 180000002 cycles: 98306675 heartbeat IPC: 1.56196 cumulative IPC: 1.57142 (Simulation time: 0 hr 57 min 15 sec) 
Heartbeat CPU 1 instructions: 150000000 cycles: 102962562 heartbeat IPC: 1.15167 cumulative IPC: 1.1588 (Simulation time: 0 hr 59 min 24 sec) 
Heartbeat CPU 0 instructions: 140000003 cycles: 103716159 heartbeat IPC: 1.03377 cumulative IPC: 1.03104 (Simulation time: 0 hr 59 min 45 sec) 
Heartbeat CPU 2 instructions: 150000001 cycles: 104584148 heartbeat IPC: 1.13416 cumulative IPC: 1.13743 (Simulation time: 1 hr 0 min 9 sec) 
Heartbeat CPU 3 instructions: 190000000 cycles: 104648506 heartbeat IPC: 1.57683 cumulative IPC: 1.57181 (Simulation time: 1 hr 0 min 11 sec) 
Heartbeat CPU 3 instructions: 200000000 cycles: 110938412 heartbeat IPC: 1.58985 cumulative IPC: 1.57301 (Simulation time: 1 hr 3 min 5 sec) 
Heartbeat CPU 1 instructions: 160000000 cycles: 111720205 heartbeat IPC: 1.14186 cumulative IPC: 1.15724 (Simulation time: 1 hr 3 min 26 sec) 
Heartbeat CPU 2 instructions: 160000002 cycles: 113403889 heartbeat IPC: 1.13382 cumulative IPC: 1.1371 (Simulation time: 1 hr 4 min 15 sec) 
Heartbeat CPU 0 instructions: 150000001 cycles: 113638620 heartbeat IPC: 1.00781 cumulative IPC: 1.02866 (Simulation time: 1 hr 4 min 21 sec) 
Heartbeat CPU 3 instructions: 210000001 cycles: 117142644 heartbeat IPC: 1.6118 cumulative IPC: 1.5754 (Simulation time: 1 hr 6 min 4 sec) 
Heartbeat CPU 1 instructions: 170000003 cycles: 120545170 heartbeat IPC: 1.13315 cumulative IPC: 1.1552 (Simulation time: 1 hr 7 min 37 sec) 
Heartbeat CPU 2 instructions: 170000002 cycles: 122115755 heartbeat IPC: 1.14786 cumulative IPC: 1.13799 (Simulation time: 1 hr 8 min 23 sec) 
Heartbeat CPU 0 instructions: 160000003 cycles: 122945727 heartbeat IPC: 1.07445 cumulative IPC: 1.03267 (Simulation time: 1 hr 8 min 47 sec) 
Heartbeat CPU 3 instructions: 220000000 cycles: 123373577 heartbeat IPC: 1.6049 cumulative IPC: 1.57713 (Simulation time: 1 hr 8 min 59 sec) 
Heartbeat CPU 1 instructions: 180000002 cycles: 129157609 heartbeat IPC: 1.16111 cumulative IPC: 1.15565 (Simulation time: 1 hr 11 min 32 sec) 
Heartbeat CPU 3 instructions: 230000000 cycles: 129992448 heartbeat IPC: 1.51083 cumulative IPC: 1.57325 (Simulation time: 1 hr 11 min 54 sec) 
Heartbeat CPU 2 instructions: 180000001 cycles: 130930794 heartbeat IPC: 1.13442 cumulative IPC: 1.13771 (Simulation time: 1 hr 12 min 20 sec) 
Heartbeat CPU 0 instructions: 170000000 cycles: 132825555 heartbeat IPC: 1.01216 cumulative IPC: 1.03093 (Simulation time: 1 hr 13 min 12 sec) 
Heartbeat CPU 3 instructions: 240000002 cycles: 136563526 heartbeat IPC: 1.52182 cumulative IPC: 1.57044 (Simulation time: 1 hr 14 min 56 sec) 
Heartbeat CPU 1 instructions: 190000002 cycles: 137768904 heartbeat IPC: 1.16127 cumulative IPC: 1.15605 (Simulation time: 1 hr 15 min 30 sec) 
Heartbeat CPU 2 instructions: 190000002 cycles: 139785502 heartbeat IPC: 1.12934 cumulative IPC: 1.13711 (Simulation time: 1 hr 16 min 29 sec) 
Heartbeat CPU 0 instructions: 180000002 cycles: 142387293 heartbeat IPC: 1.04584 cumulative IPC: 1.03206 (Simulation time: 1 hr 17 min 39 sec) 
*** Reached end of trace for Core: 3 Repeating trace: ./traces/ligra/ligra_BFS-Bitvector.com-lj.ungraph.gcc_6.3.0_O3.drop_500M.length_250M.champsimtrace.xz
Heartbeat CPU 3 instructions: 250000000 cycles: 142941737 heartbeat IPC: 1.56784 cumulative IPC: 1.5703 (Simulation time: 1 hr 17 min 54 sec) 
Finished CPU 3 instructions: 200000002 cycles: 127259232 cumulative IPC: 1.5716 (Simulation time: 1 hr 18 min 21 sec) 
Heartbeat CPU 1 instructions: 200000001 cycles: 146344679 heartbeat IPC: 1.16608 cumulative IPC: 1.15671 (Simulation time: 1 hr 19 min 31 sec) 
Heartbeat CPU 2 instructions: 200000000 cycles: 148683169 heartbeat IPC: 1.12389 cumulative IPC: 1.13622 (Simulation time: 1 hr 20 min 34 sec) 
Heartbeat CPU 3 instructions: 260000001 cycles: 148858914 heartbeat IPC: 1.69 cumulative IPC: 1.57566 (Simulation time: 1 hr 20 min 39 sec) 
Heartbeat CPU 0 instructions: 190000001 cycles: 153315363 heartbeat IPC: 0.915075 cumulative IPC: 1.02271 (Simulation time: 1 hr 22 min 38 sec) 
Heartbeat CPU 3 instructions: 270000000 cycles: 154849607 heartbeat IPC: 1.66926 cumulative IPC: 1.57972 (Simulation time: 1 hr 23 min 25 sec) 
Heartbeat CPU 1 instructions: 210000001 cycles: 154985701 heartbeat IPC: 1.15727 cumulative IPC: 1.15675 (Simulation time: 1 hr 23 min 29 sec) 
Heartbeat CPU 2 instructions: 210000002 cycles: 157573141 heartbeat IPC: 1.12486 cumulative IPC: 1.13551 (Simulation time: 1 hr 24 min 41 sec) 
Heartbeat CPU 3 instructions: 280000002 cycles: 160844624 heartbeat IPC: 1.66805 cumulative IPC: 1.58339 (Simulation time: 1 hr 26 min 5 sec) 
Heartbeat CPU 0 instructions: 200000001 cycles: 162869900 heartbeat IPC: 1.04662 cumulative IPC: 1.02427 (Simulation time: 1 hr 27 min 0 sec) 
Heartbeat CPU 1 instructions: 220000000 cycles: 163569090 heartbeat IPC: 1.16504 cumulative IPC: 1.15723 (Simulation time: 1 hr 27 min 19 sec) 
Heartbeat CPU 2 instructions: 220000000 cycles: 166554641 heartbeat IPC: 1.1134 cumulative IPC: 1.13418 (Simulation time: 1 hr 28 min 39 sec) 
Heartbeat CPU 3 instructions: 290000001 cycles: 166916199 heartbeat IPC: 1.64702 cumulative IPC: 1.58596 (Simulation time: 1 hr 28 min 49 sec) 
Heartbeat CPU 1 instructions: 230000000 cycles: 172406889 heartbeat IPC: 1.1315 cumulative IPC: 1.15577 (Simulation time: 1 hr 31 min 20 sec) 
Heartbeat CPU 3 instructions: 300000001 cycles: 173006007 heartbeat IPC: 1.64209 cumulative IPC: 1.58815 (Simulation time: 1 hr 31 min 37 sec) 
Heartbeat CPU 0 instructions: 210000003 cycles: 173293046 heartbeat IPC: 0.959403 cumulative IPC: 1.01995 (Simulation time: 1 hr 31 min 45 sec) 
Heartbeat CPU 2 instructions: 230000002 cycles: 175404291 heartbeat IPC: 1.12999 cumulative IPC: 1.13395 (Simulation time: 1 hr 32 min 48 sec) 
Heartbeat CPU 3 instructions: 310000001 cycles: 179145729 heartbeat IPC: 1.62874 cumulative IPC: 1.58968 (Simulation time: 1 hr 34 min 27 sec) 
Heartbeat CPU 1 instructions: 240000002 cycles: 181160261 heartbeat IPC: 1.14242 cumulative IPC: 1.15506 (Simulation time: 1 hr 35 min 24 sec) 
Heartbeat CPU 0 instructions: 220000000 cycles: 183086007 heartbeat IPC: 1.02114 cumulative IPC: 1.02002 (Simulation time: 1 hr 36 min 15 sec) 
Heartbeat CPU 2 instructions: 240000001 cycles: 184262819 heartbeat IPC: 1.12886 cumulative IPC: 1.13368 (Simulation time: 1 hr 36 min 47 sec) 
Heartbeat CPU 3 instructions: 320000002 cycles: 185305080 heartbeat IPC: 1.62355 cumulative IPC: 1.59092 (Simulation time: 1 hr 37 min 15 sec) 
*** Reached end of trace for Core: 1 Repeating trace: ./traces/ligra/ligra_BFS.com-lj.ungraph.gcc_6.3.0_O3.drop_500M.length_250M.champsimtrace.xz
Heartbeat CPU 1 instructions: 250000000 cycles: 189840618 heartbeat IPC: 1.15203 cumulative IPC: 1.15491 (Simulation time: 1 hr 39 min 24 sec) 
Finished CPU 1 instructions: 200000002 cycles: 173175223 cumulative IPC: 1.1549 (Simulation time: 1 hr 39 min 24 sec) 
Heartbeat CPU 3 instructions: 330000000 cycles: 191492847 heartbeat IPC: 1.61609 cumulative IPC: 1.59181 (Simulation time: 1 hr 40 min 12 sec) 
*** Reached end of trace for Core: 2 Repeating trace: ./traces/ligra/ligra_BC.com-lj.ungraph.gcc_6.3.0_O3.drop_3500M.length_250M.champsimtrace.xz
Heartbeat CPU 2 instructions: 250000003 cycles: 193062126 heartbeat IPC: 1.13645 cumulative IPC: 1.13382 (Simulation time: 1 hr 40 min 59 sec) 
Finished CPU 2 instructions: 200000000 cycles: 176395445 cumulative IPC: 1.13382 (Simulation time: 1 hr 40 min 59 sec) 
Heartbeat CPU 0 instructions: 230000000 cycles: 193082303 heartbeat IPC: 1.00037 cumulative IPC: 1.01891 (Simulation time: 1 hr 40 min 59 sec) 
Heartbeat CPU 3 instructions: 340000003 cycles: 197712485 heartbeat IPC: 1.60781 cumulative IPC: 1.59236 (Simulation time: 1 hr 43 min 13 sec) 
Heartbeat CPU 1 instructions: 260000000 cycles: 198305398 heartbeat IPC: 1.18137 cumulative IPC: 1.15614 (Simulation time: 1 hr 43 min 31 sec) 
Heartbeat CPU 2 instructions: 260000000 cycles: 201716668 heartbeat IPC: 1.15546 cumulative IPC: 1.13483 (Simulation time: 1 hr 45 min 11 sec) 
Heartbeat CPU 0 instructions: 240000000 cycles: 203649547 heartbeat IPC: 0.946321 cumulative IPC: 1.01481 (Simulation time: 1 hr 46 min 9 sec) 
Heartbeat CPU 3 instructions: 350000000 cycles: 203880364 heartbeat IPC: 1.6213 cumulative IPC: 1.59331 (Simulation time: 1 hr 46 min 16 sec) 
Heartbeat CPU 1 instructions: 270000000 cycles: 206803168 heartbeat IPC: 1.17678 cumulative IPC: 1.15706 (Simulation time: 1 hr 47 min 41 sec) 
Heartbeat CPU 3 instructions: 360000002 cycles: 210011328 heartbeat IPC: 1.63107 cumulative IPC: 1.59451 (Simulation time: 1 hr 49 min 14 sec) 
Heartbeat CPU 2 instructions: 270000000 cycles: 210396298 heartbeat IPC: 1.15212 cumulative IPC: 1.1356 (Simulation time: 1 hr 49 min 26 sec) 
*** Reached end of trace for Core: 0 Repeating trace: ./traces/ligra/ligra_Triangle.com-lj.ungraph.gcc_6.3.0_O3.drop_18000M.length_250M.champsimtrace.xz
Heartbeat CPU 0 instructions: 250000003 cycles: 214429346 heartbeat IPC: 0.927661 cumulative IPC: 1.01006 (Simulation time: 1 hr 51 min 19 sec) 
Finished CPU 0 instructions: 200000001 cycles: 198100094 cumulative IPC: 1.00959 (Simulation time: 1 hr 51 min 28 sec) 

ChampSim completed all CPUs

Total Simulation Statistics (not including warmup)

CPU 0 cumulative IPC: 1.00959 instructions: 200000001 cycles: 198100094
ITLB TOTAL     ACCESS:   36940961  HIT:   36940961  MISS:          0  HIT %:        100  MISS %:          0   MPKI: 0
ITLB LOAD      ACCESS:          0  HIT:          0  MISS:          0  HIT %:       -nan  MISS %:       -nan   MPKI: 0
ITLB RFO       ACCESS:          0  HIT:          0  MISS:          0  HIT %:       -nan  MISS %:       -nan   MPKI: 0
ITLB PREFETCH  ACCESS:          0  HIT:          0  MISS:          0  HIT %:       -nan  MISS %:       -nan   MPKI: 0
ITLB WRITEBACK ACCESS:          0  HIT:          0  MISS:          0  HIT %:       -nan  MISS %:       -nan   MPKI: 0
DTLB TOTAL     ACCESS:   57486825  HIT:   57397168  MISS:      89657  HIT %:     99.844  MISS %:   0.155961   MPKI: 0.448285
DTLB LOAD      ACCESS:          0  HIT:          0  MISS:          0  HIT %:       -nan  MISS %:       -nan   MPKI: 0
DTLB RFO       ACCESS:          0  HIT:          0  MISS:          0  HIT %:       -nan  MISS %:       -nan   MPKI: 0
DTLB PREFETCH  ACCESS:          0  HIT:          0  MISS:          0  HIT %:       -nan  MISS %:       -nan   MPKI: 0
DTLB WRITEBACK ACCESS:          0  HIT:          0  MISS:          0  HIT %:       -nan  MISS %:       -nan   MPKI: 0
STLB TOTAL     ACCESS:   19212567  HIT:   19196198  MISS:      16369  HIT %:    99.9148  MISS %:  0.0851994   MPKI: 0.081845
STLB LOAD      ACCESS:          0  HIT:          0  MISS:          0  HIT %:       -nan  MISS %:       -nan   MPKI: 0
STLB RFO       ACCESS:          0  HIT:          0  MISS:          0  HIT %:       -nan  MISS %:       -nan   MPKI: 0
STLB PREFETCH  ACCESS:          0  HIT:          0  MISS:          0  HIT %:       -nan  MISS %:       -nan   MPKI: 0
STLB WRITEBACK ACCESS:          0  HIT:          0  MISS:          0  HIT %:       -nan  MISS %:       -nan   MPKI: 0
L1D TOTAL     ACCESS:  129917094  HIT:  124930309  MISS:    4986785  HIT %:    96.1616  MISS %:    3.83844   MPKI: 24.9339
L1D LOAD      ACCESS:   28608157  HIT:   27377674  MISS:    1230483  HIT %:    95.6988  MISS %:    4.30116   MPKI: 6.15241
L1D RFO       ACCESS:   34263716  HIT:   32070503  MISS:    2193213  HIT %:     93.599  MISS %:    6.40098   MPKI: 10.9661
L1D PREFETCH  ACCESS:   67045221  HIT:   65482132  MISS:    1563089  HIT %:    97.6686  MISS %:     2.3314   MPKI: 7.81544
L1D WRITEBACK ACCESS:          0  HIT:          0  MISS:          0  HIT %:       -nan  MISS %:       -nan   MPKI: 0
L1I TOTAL     ACCESS:   37074077  HIT:   37074076  MISS:          1  HIT %:        100  MISS %: 2.6973e-06   MPKI: 5e-06
L1I LOAD      ACCESS:   37074077  HIT:   37074076  MISS:          1  HIT %:        100  MISS %: 2.6973e-06   MPKI: 5e-06
L1I RFO       ACCESS:          0  HIT:          0  MISS:          0  HIT %:       -nan  MISS %:       -nan   MPKI: 0
L1I PREFETCH  ACCESS:          0  HIT:          0  MISS:          0  HIT %:       -nan  MISS %:       -nan   MPKI: 0
L1I WRITEBACK ACCESS:          0  HIT:          0  MISS:          0  HIT %:       -nan  MISS %:       -nan   MPKI: 0
L2C TOTAL     ACCESS:   15956980  HIT:   11777301  MISS:    4179679  HIT %:    73.8066  MISS %:    26.1934   MPKI: 20.8984
L2C LOAD      ACCESS:    1217509  HIT:     971058  MISS:     246451  HIT %:    79.7578  MISS %:    20.2422   MPKI: 1.23225
L2C RFO       ACCESS:    2193136  HIT:     142035  MISS:    2051101  HIT %:    6.47634  MISS %:    93.5237   MPKI: 10.2555
L2C PREFETCH  ACCESS:   10265374  HIT:    8452768  MISS:    1812606  HIT %:    82.3425  MISS %:    17.6575   MPKI: 9.06303
L2C WRITEBACK ACCESS:    2197777  HIT:    2130695  MISS:      67082  HIT %:    96.9477  MISS %:    3.05227   MPKI: 0.33541
PSCL5 TOTAL     ACCESS:      82858  HIT:      82858  MISS:          0  HIT %:        100  MISS %:          0   MPKI: 0
PSCL5 LOAD      ACCESS:          0  HIT:          0  MISS:          0  HIT %:       -nan  MISS %:       -nan   MPKI: 0
PSCL5 RFO       ACCESS:          0  HIT:          0  MISS:          0  HIT %:       -nan  MISS %:       -nan   MPKI: 0
PSCL5 PREFETCH  ACCESS:          0  HIT:          0  MISS:          0  HIT %:       -nan  MISS %:       -nan   MPKI: 0
PSCL5 WRITEBACK ACCESS:          0  HIT:          0  MISS:          0  HIT %:       -nan  MISS %:       -nan   MPKI: 0
PSCL4 TOTAL     ACCESS:      82858  HIT:      82858  MISS:          0  HIT %:        100  MISS %:          0   MPKI: 0
PSCL4 LOAD      ACCESS:          0  HIT:          0  MISS:          0  HIT %:       -nan  MISS %:       -nan   MPKI: 0
PSCL4 RFO       ACCESS:          0  HIT:          0  MISS:          0  HIT %:       -nan  MISS %:       -nan   MPKI: 0
PSCL4 PREFETCH  ACCESS:          0  HIT:          0  MISS:          0  HIT %:       -nan  MISS %:       -nan   MPKI: 0
PSCL4 WRITEBACK ACCESS:          0  HIT:          0  MISS:          0  HIT %:       -nan  MISS %:       -nan   MPKI: 0
PSCL3 TOTAL     ACCESS:      82858  HIT:      82858  MISS:          0  HIT %:        100  MISS %:          0   MPKI: 0
PSCL3 LOAD      ACCESS:          0  HIT:          0  MISS:          0  HIT %:       -nan  MISS %:       -nan   MPKI: 0
PSCL3 RFO       ACCESS:          0  HIT:          0  MISS:          0  HIT %:       -nan  MISS %:       -nan   MPKI: 0
PSCL3 PREFETCH  ACCESS:          0  HIT:          0  MISS:          0  HIT %:       -nan  MISS %:       -nan   MPKI: 0
PSCL3 WRITEBACK ACCESS:          0  HIT:          0  MISS:          0  HIT %:       -nan  MISS %:       -nan   MPKI: 0
PSCL2 TOTAL     ACCESS:      82511  HIT:      82473  MISS:         38  HIT %:    99.9539  MISS %:  0.0460545   MPKI: 0.00019
PSCL2 LOAD      ACCESS:          0  HIT:          0  MISS:          0  HIT %:       -nan  MISS %:       -nan   MPKI: 0
PSCL2 RFO       ACCESS:          0  HIT:          0  MISS:          0  HIT %:       -nan  MISS %:       -nan   MPKI: 0
PSCL2 PREFETCH  ACCESS:          0  HIT:          0  MISS:          0  HIT %:       -nan  MISS %:       -nan   MPKI: 0
PSCL2 WRITEBACK ACCESS:          0  HIT:          0  MISS:          0  HIT %:       -nan  MISS %:       -nan   MPKI: 0
LLC TOTAL     ACCESS:    6180832  HIT:    5030702  MISS:    1150130  HIT %:     81.392  MISS %:     18.608   MPKI: 5.75065
LLC LOAD      ACCESS:     122213  HIT:      44021  MISS:      78192  HIT %:    36.0199  MISS %:    63.9801   MPKI: 0.39096
LLC RFO       ACCESS:    2050885  HIT:    1459707  MISS:     591178  HIT %:    71.1745  MISS %:    28.8255   MPKI: 2.95589
LLC PREFETCH  ACCESS:    1937052  HIT:    1461897  MISS:     475155  HIT %:    75.4702  MISS %:    24.5298   MPKI: 2.37577
LLC WRITEBACK ACCESS:    2068243  HIT:    2064767  MISS:       3476  HIT %:    99.8319  MISS %:   0.168065   MPKI: 0.01738

RAW hits: 2962093
Loads Generated: 51159771
Loads sent to L1D: 48197677
Stores Generated: 42934005
Stores sent to L1D: 42934002

CPU 1 cumulative IPC: 1.15781 instructions: 229362653 cycles: 198100094
ITLB TOTAL     ACCESS:   38084656  HIT:   38084656  MISS:          0  HIT %:        100  MISS %:          0   MPKI: 0
ITLB LOAD      ACCESS:          0  HIT:          0  MISS:          0  HIT %:       -nan  MISS %:       -nan   MPKI: 0
ITLB RFO       ACCESS:          0  HIT:          0  MISS:          0  HIT %:       -nan  MISS %:       -nan   MPKI: 0
ITLB PREFETCH  ACCESS:          0  HIT:          0  MISS:          0  HIT %:       -nan  MISS %:       -nan   MPKI: 0
ITLB WRITEBACK ACCESS:          0  HIT:          0  MISS:          0  HIT %:       -nan  MISS %:       -nan   MPKI: 0
DTLB TOTAL     ACCESS:   20755549  HIT:   20747197  MISS:       8352  HIT %:    99.9598  MISS %:  0.0402398   MPKI: 0.0364139
DTLB LOAD      ACCESS:          0  HIT:          0  MISS:          0  HIT %:       -nan  MISS %:       -nan   MPKI: 0
DTLB RFO       ACCESS:          0  HIT:          0  MISS:          0  HIT %:       -nan  MISS %:       -nan   MPKI: 0
DTLB PREFETCH  ACCESS:          0  HIT:          0  MISS:          0  HIT %:       -nan  MISS %:       -nan   MPKI: 0
DTLB WRITEBACK ACCESS:          0  HIT:          0  MISS:          0  HIT %:       -nan  MISS %:       -nan   MPKI: 0
STLB TOTAL     ACCESS:   13246665  HIT:   13238313  MISS:       8352  HIT %:     99.937  MISS %:  0.0630498   MPKI: 0.0364139
STLB LOAD      ACCESS:          0  HIT:          0  MISS:          0  HIT %:       -nan  MISS %:       -nan   MPKI: 0
STLB RFO       ACCESS:          0  HIT:          0  MISS:          0  HIT %:       -nan  MISS %:       -nan   MPKI: 0
STLB PREFETCH  ACCESS:          0  HIT:          0  MISS:          0  HIT %:       -nan  MISS %:       -nan   MPKI: 0
STLB WRITEBACK ACCESS:          0  HIT:          0  MISS:          0  HIT %:       -nan  MISS %:       -nan   MPKI: 0
L1D TOTAL     ACCESS:   86778428  HIT:   86244005  MISS:     534423  HIT %:    99.3842  MISS %:   0.615848   MPKI: 2.33003
L1D LOAD      ACCESS:   16510297  HIT:   16501305  MISS:       8992  HIT %:    99.9455  MISS %:   0.054463   MPKI: 0.0392043
L1D RFO       ACCESS:    4830042  HIT:    4830042  MISS:          0  HIT %:        100  MISS %:          0   MPKI: 0
L1D PREFETCH  ACCESS:   65438089  HIT:   64912658  MISS:     525431  HIT %:    99.1971  MISS %:   0.802944   MPKI: 2.29083
L1D WRITEBACK ACCESS:          0  HIT:          0  MISS:          0  HIT %:       -nan  MISS %:       -nan   MPKI: 0
L1I TOTAL     ACCESS:   38084655  HIT:   38084655  MISS:          0  HIT %:        100  MISS %:          0   MPKI: 0
L1I LOAD      ACCESS:   38084655  HIT:   38084655  MISS:          0  HIT %:        100  MISS %:          0   MPKI: 0
L1I RFO       ACCESS:          0  HIT:          0  MISS:          0  HIT %:       -nan  MISS %:       -nan   MPKI: 0
L1I PREFETCH  ACCESS:          0  HIT:          0  MISS:          0  HIT %:       -nan  MISS %:       -nan   MPKI: 0
L1I WRITEBACK ACCESS:          0  HIT:          0  MISS:          0  HIT %:       -nan  MISS %:       -nan   MPKI: 0
L2C TOTAL     ACCESS:    3040943  HIT:    2440712  MISS:     600231  HIT %:    80.2617  MISS %:    19.7383   MPKI: 2.61695
L2C LOAD      ACCESS:       3468  HIT:          0  MISS:       3468  HIT %:          0  MISS %:        100   MPKI: 0.0151202
L2C RFO       ACCESS:          0  HIT:          0  MISS:          0  HIT %:       -nan  MISS %:       -nan   MPKI: 0
L2C PREFETCH  ACCESS:    1458992  HIT:     928037  MISS:     530955  HIT %:    63.6081  MISS %:    36.3919   MPKI: 2.31491
L2C WRITEBACK ACCESS:     534407  HIT:     469659  MISS:      64748  HIT %:    87.8841  MISS %:    12.1159   MPKI: 0.282295
PSCL5 TOTAL     ACCESS:    1044076  HIT:    1044076  MISS:          0  HIT %:        100  MISS %:          0   MPKI: 0
PSCL5 LOAD      ACCESS:          0  HIT:          0  MISS:          0  HIT %:       -nan  MISS %:       -nan   MPKI: 0
PSCL5 RFO       ACCESS:          0  HIT:          0  MISS:          0  HIT %:       -nan  MISS %:       -nan   MPKI: 0
PSCL5 PREFETCH  ACCESS:          0  HIT:          0  MISS:          0  HIT %:       -nan  MISS %:       -nan   MPKI: 0
PSCL5 WRITEBACK ACCESS:          0  HIT:          0  MISS:          0  HIT %:       -nan  MISS %:       -nan   MPKI: 0
PSCL4 TOTAL     ACCESS:    1044076  HIT:    1044076  MISS:          0  HIT %:        100  MISS %:          0   MPKI: 0
PSCL4 LOAD      ACCESS:          0  HIT:          0  MISS:          0  HIT %:       -nan  MISS %:       -nan   MPKI: 0
PSCL4 RFO       ACCESS:          0  HIT:          0  MISS:          0  HIT %:       -nan  MISS %:       -nan   MPKI: 0
PSCL4 PREFETCH  ACCESS:          0  HIT:          0  MISS:          0  HIT %:       -nan  MISS %:       -nan   MPKI: 0
PSCL4 WRITEBACK ACCESS:          0  HIT:          0  MISS:          0  HIT %:       -nan  MISS %:       -nan   MPKI: 0
PSCL3 TOTAL     ACCESS:    1044076  HIT:    1044076  MISS:          0  HIT %:        100  MISS %:          0   MPKI: 0
PSCL3 LOAD      ACCESS:          0  HIT:          0  MISS:          0  HIT %:       -nan  MISS %:       -nan   MPKI: 0
PSCL3 RFO       ACCESS:          0  HIT:          0  MISS:          0  HIT %:       -nan  MISS %:       -nan   MPKI: 0
PSCL3 PREFETCH  ACCESS:          0  HIT:          0  MISS:          0  HIT %:       -nan  MISS %:       -nan   MPKI: 0
PSCL3 WRITEBACK ACCESS:          0  HIT:          0  MISS:          0  HIT %:       -nan  MISS %:       -nan   MPKI: 0
PSCL2 TOTAL     ACCESS:    1042037  HIT:    1042022  MISS:         15  HIT %:    99.9986  MISS %: 0.00143949   MPKI: 6.53986e-05
PSCL2 LOAD      ACCESS:          0  HIT:          0  MISS:          0  HIT %:       -nan  MISS %:       -nan   MPKI: 0
PSCL2 RFO       ACCESS:          0  HIT:          0  MISS:          0  HIT %:       -nan  MISS %:       -nan   MPKI: 0
PSCL2 PREFETCH  ACCESS:          0  HIT:          0  MISS:          0  HIT %:       -nan  MISS %:       -nan   MPKI: 0
PSCL2 WRITEBACK ACCESS:          0  HIT:          0  MISS:          0  HIT %:       -nan  MISS %:       -nan   MPKI: 0
LLC TOTAL     ACCESS:    1069860  HIT:     415313  MISS:     654547  HIT %:    38.8194  MISS %:    61.1806   MPKI: 2.85376
LLC LOAD      ACCESS:       3468  HIT:          0  MISS:       3468  HIT %:          0  MISS %:        100   MPKI: 0.0151202
LLC RFO       ACCESS:          0  HIT:          0  MISS:          0  HIT %:       -nan  MISS %:       -nan   MPKI: 0
LLC PREFETCH  ACCESS:     530955  HIT:          0  MISS:     530955  HIT %:          0  MISS %:        100   MPKI: 2.31491
LLC WRITEBACK ACCESS:     534377  HIT:     415313  MISS:     119064  HIT %:    77.7191  MISS %:    22.2809   MPKI: 0.519108

RAW hits: 0
Loads Generated: 34202075
Loads sent to L1D: 34202074
Stores Generated: 4830043
Stores sent to L1D: 4830042

CPU 2 cumulative IPC: 1.13589 instructions: 225020027 cycles: 198100094
ITLB TOTAL     ACCESS:   37333056  HIT:   37333056  MISS:          0  HIT %:        100  MISS %:          0   MPKI: 0
ITLB LOAD      ACCESS:          0  HIT:          0  MISS:          0  HIT %:       -nan  MISS %:       -nan   MPKI: 0
ITLB RFO       ACCESS:          0  HIT:          0  MISS:          0  HIT %:       -nan  MISS %:       -nan   MPKI: 0
ITLB PREFETCH  ACCESS:          0  HIT:          0  MISS:          0  HIT %:       -nan  MISS %:       -nan   MPKI: 0
ITLB WRITEBACK ACCESS:          0  HIT:          0  MISS:          0  HIT %:       -nan  MISS %:       -nan   MPKI: 0
DTLB TOTAL     ACCESS:   38070056  HIT:   38057478  MISS:      12578  HIT %:     99.967  MISS %:  0.0330391   MPKI: 0.0558972
DTLB LOAD      ACCESS:          0  HIT:          0  MISS:          0  HIT %:       -nan  MISS %:       -nan   MPKI: 0
DTLB RFO       ACCESS:          0  HIT:          0  MISS:          0  HIT %:       -nan  MISS %:       -nan   MPKI: 0
DTLB PREFETCH  ACCESS:          0  HIT:          0  MISS:          0  HIT %:       -nan  MISS %:       -nan   MPKI: 0
DTLB WRITEBACK ACCESS:          0  HIT:          0  MISS:          0  HIT %:       -nan  MISS %:       -nan   MPKI: 0
STLB TOTAL     ACCESS:   11802008  HIT:   11789419  MISS:      12589  HIT %:    99.8933  MISS %:   0.106668   MPKI: 0.0559461
STLB LOAD      ACCESS:          0  HIT:          0  MISS:          0  HIT %:       -nan  MISS %:       -nan   MPKI: 0
STLB RFO       ACCESS:          0  HIT:          0  MISS:          0  HIT %:       -nan  MISS %:       -nan   MPKI: 0
STLB PREFETCH  ACCESS:          0  HIT:          0  MISS:          0  HIT %:       -nan  MISS %:       -nan   MPKI: 0
STLB WRITEBACK ACCESS:          0  HIT:          0  MISS:          0  HIT %:       -nan  MISS %:       -nan   MPKI: 0
L1D TOTAL     ACCESS:   80045958  HIT:   79241133  MISS:     804825  HIT %:    98.9945  MISS %:    1.00545   MPKI: 3.57668
L1D LOAD      ACCESS:   14026200  HIT:   14019851  MISS:       6349  HIT %:    99.9547  MISS %:  0.0452653   MPKI: 0.0282153
L1D RFO       ACCESS:    9679960  HIT:    9277550  MISS:     402410  HIT %:    95.8429  MISS %:    4.15715   MPKI: 1.78833
L1D PREFETCH  ACCESS:   56339798  HIT:   55943732  MISS:     396066  HIT %:     99.297  MISS %:   0.702995   MPKI: 1.76014
L1D WRITEBACK ACCESS:          0  HIT:          0  MISS:          0  HIT %:       -nan  MISS %:       -nan   MPKI: 0
L1I TOTAL     ACCESS:   37333056  HIT:   37333056  MISS:          0  HIT %:        100  MISS %:          0   MPKI: 0
L1I LOAD      ACCESS:   37333056  HIT:   37333056  MISS:          0  HIT %:        100  MISS %:          0   MPKI: 0
L1I RFO       ACCESS:          0  HIT:          0  MISS:          0  HIT %:       -nan  MISS %:       -nan   MPKI: 0
L1I PREFETCH  ACCESS:          0  HIT:          0  MISS:          0  HIT %:       -nan  MISS %:       -nan   MPKI: 0
L1I WRITEBACK ACCESS:          0  HIT:          0  MISS:          0  HIT %:       -nan  MISS %:       -nan   MPKI: 0
L2C TOTAL     ACCESS:    4010812  HIT:    3146031  MISS:     864781  HIT %:    78.4388  MISS %:    21.5612   MPKI: 3.84313
L2C LOAD      ACCESS:       2782  HIT:          0  MISS:       2782  HIT %:          0  MISS %:        100   MPKI: 0.0123633
L2C RFO       ACCESS:     402410  HIT:          0  MISS:     402410  HIT %:          0  MISS %:        100   MPKI: 1.78833
L2C PREFETCH  ACCESS:    1412626  HIT:    1006467  MISS:     406159  HIT %:    71.2479  MISS %:    28.7521   MPKI: 1.80499
L2C WRITEBACK ACCESS:     402410  HIT:     350585  MISS:      51825  HIT %:    87.1213  MISS %:    12.8787   MPKI: 0.230313
PSCL5 TOTAL     ACCESS:    1790584  HIT:    1790584  MISS:          0  HIT %:        100  MISS %:          0   MPKI: 0
PSCL5 LOAD      ACCESS:          0  HIT:          0  MISS:          0  HIT %:       -nan  MISS %:       -nan   MPKI: 0
PSCL5 RFO       ACCESS:          0  HIT:          0  MISS:          0  HIT %:       -nan  MISS %:       -nan   MPKI: 0
PSCL5 PREFETCH  ACCESS:          0  HIT:          0  MISS:          0  HIT %:       -nan  MISS %:       -nan   MPKI: 0
PSCL5 WRITEBACK ACCESS:          0  HIT:          0  MISS:          0  HIT %:       -nan  MISS %:       -nan   MPKI: 0
PSCL4 TOTAL     ACCESS:    1790584  HIT:    1790584  MISS:          0  HIT %:        100  MISS %:          0   MPKI: 0
PSCL4 LOAD      ACCESS:          0  HIT:          0  MISS:          0  HIT %:       -nan  MISS %:       -nan   MPKI: 0
PSCL4 RFO       ACCESS:          0  HIT:          0  MISS:          0  HIT %:       -nan  MISS %:       -nan   MPKI: 0
PSCL4 PREFETCH  ACCESS:          0  HIT:          0  MISS:          0  HIT %:       -nan  MISS %:       -nan   MPKI: 0
PSCL4 WRITEBACK ACCESS:          0  HIT:          0  MISS:          0  HIT %:       -nan  MISS %:       -nan   MPKI: 0
PSCL3 TOTAL     ACCESS:    1790584  HIT:    1790584  MISS:          0  HIT %:        100  MISS %:          0   MPKI: 0
PSCL3 LOAD      ACCESS:          0  HIT:          0  MISS:          0  HIT %:       -nan  MISS %:       -nan   MPKI: 0
PSCL3 RFO       ACCESS:          0  HIT:          0  MISS:          0  HIT %:       -nan  MISS %:       -nan   MPKI: 0
PSCL3 PREFETCH  ACCESS:          0  HIT:          0  MISS:          0  HIT %:       -nan  MISS %:       -nan   MPKI: 0
PSCL3 WRITEBACK ACCESS:          0  HIT:          0  MISS:          0  HIT %:       -nan  MISS %:       -nan   MPKI: 0
PSCL2 TOTAL     ACCESS:    1767482  HIT:    1767460  MISS:         22  HIT %:    99.9988  MISS %: 0.00124471   MPKI: 9.77691e-05
PSCL2 LOAD      ACCESS:          0  HIT:          0  MISS:          0  HIT %:       -nan  MISS %:       -nan   MPKI: 0
PSCL2 RFO       ACCESS:          0  HIT:          0  MISS:          0  HIT %:       -nan  MISS %:       -nan   MPKI: 0
PSCL2 PREFETCH  ACCESS:          0  HIT:          0  MISS:          0  HIT %:       -nan  MISS %:       -nan   MPKI: 0
PSCL2 WRITEBACK ACCESS:          0  HIT:          0  MISS:          0  HIT %:       -nan  MISS %:       -nan   MPKI: 0
LLC TOTAL     ACCESS:    1215502  HIT:     360814  MISS:     854688  HIT %:    29.6844  MISS %:    70.3156   MPKI: 3.79828
LLC LOAD      ACCESS:       2782  HIT:          0  MISS:       2782  HIT %:          0  MISS %:        100   MPKI: 0.0123633
LLC RFO       ACCESS:     402410  HIT:          0  MISS:     402410  HIT %:          0  MISS %:        100   MPKI: 1.78833
LLC PREFETCH  ACCESS:     406159  HIT:       6017  MISS:     400142  HIT %:    1.48144  MISS %:    98.5186   MPKI: 1.77825
LLC WRITEBACK ACCESS:     402546  HIT:     354789  MISS:      47757  HIT %:    88.1363  MISS %:    11.8637   MPKI: 0.212234

RAW hits: 0
Loads Generated: 48124624
Loads sent to L1D: 48124623
Stores Generated: 25754156
Stores sent to L1D: 25754156

CPU 3 cumulative IPC: 1.59549 instructions: 316066465 cycles: 198100095
ITLB TOTAL     ACCESS:   67966551  HIT:   67966551  MISS:          0  HIT %:        100  MISS %:          0   MPKI: 0
ITLB LOAD      ACCESS:          0  HIT:          0  MISS:          0  HIT %:       -nan  MISS %:       -nan   MPKI: 0
ITLB RFO       ACCESS:          0  HIT:          0  MISS:          0  HIT %:       -nan  MISS %:       -nan   MPKI: 0
ITLB PREFETCH  ACCESS:          0  HIT:          0  MISS:          0  HIT %:       -nan  MISS %:       -nan   MPKI: 0
ITLB WRITEBACK ACCESS:          0  HIT:          0  MISS:          0  HIT %:       -nan  MISS %:       -nan   MPKI: 0
DTLB TOTAL     ACCESS:   21815747  HIT:   21804242  MISS:      11505  HIT %:    99.9473  MISS %:  0.0527371   MPKI: 0.0364006
DTLB LOAD      ACCESS:          0  HIT:          0  MISS:          0  HIT %:       -nan  MISS %:       -nan   MPKI: 0
DTLB RFO       ACCESS:          0  HIT:          0  MISS:          0  HIT %:       -nan  MISS %:       -nan   MPKI: 0
DTLB PREFETCH  ACCESS:          0  HIT:          0  MISS:          0  HIT %:       -nan  MISS %:       -nan   MPKI: 0
DTLB WRITEBACK ACCESS:          0  HIT:          0  MISS:          0  HIT %:       -nan  MISS %:       -nan   MPKI: 0
STLB TOTAL     ACCESS:   11217853  HIT:   11206347  MISS:      11506  HIT %:    99.8974  MISS %:   0.102569   MPKI: 0.0364037
STLB LOAD      ACCESS:          0  HIT:          0  MISS:          0  HIT %:       -nan  MISS %:       -nan   MPKI: 0
STLB RFO       ACCESS:          0  HIT:          0  MISS:          0  HIT %:       -nan  MISS %:       -nan   MPKI: 0
STLB PREFETCH  ACCESS:          0  HIT:          0  MISS:          0  HIT %:       -nan  MISS %:       -nan   MPKI: 0
STLB WRITEBACK ACCESS:          0  HIT:          0  MISS:          0  HIT %:       -nan  MISS %:       -nan   MPKI: 0
L1D TOTAL     ACCESS:   84987235  HIT:   84250995  MISS:     736240  HIT %:    99.1337  MISS %:   0.866295   MPKI: 2.32938
L1D LOAD      ACCESS:   17125005  HIT:   17114991  MISS:      10014  HIT %:    99.9415  MISS %:  0.0584759   MPKI: 0.0316832
L1D RFO       ACCESS:    6669801  HIT:    6669801  MISS:          0  HIT %:        100  MISS %:          0   MPKI: 0
L1D PREFETCH  ACCESS:   61192429  HIT:   60466203  MISS:     726226  HIT %:    98.8132  MISS %:    1.18679   MPKI: 2.2977
L1D WRITEBACK ACCESS:          0  HIT:          0  MISS:          0  HIT %:       -nan  MISS %:       -nan   MPKI: 0
L1I TOTAL     ACCESS:   68098799  HIT:   68098799  MISS:          0  HIT %:        100  MISS %:          0   MPKI: 0
L1I LOAD      ACCESS:   68098799  HIT:   68098799  MISS:          0  HIT %:        100  MISS %:          0   MPKI: 0
L1I RFO       ACCESS:          0  HIT:          0  MISS:          0  HIT %:       -nan  MISS %:       -nan   MPKI: 0
L1I PREFETCH  ACCESS:          0  HIT:          0  MISS:          0  HIT %:       -nan  MISS %:       -nan   MPKI: 0
L1I WRITEBACK ACCESS:          0  HIT:          0  MISS:          0  HIT %:       -nan  MISS %:       -nan   MPKI: 0
L2C TOTAL     ACCESS:    2740194  HIT:    1910855  MISS:     829339  HIT %:    69.7343  MISS %:    30.2657   MPKI: 2.62394
L2C LOAD      ACCESS:       2728  HIT:          8  MISS:       2720  HIT %:   0.293255  MISS %:    99.7067   MPKI: 0.00860578
L2C RFO       ACCESS:          0  HIT:          0  MISS:          0  HIT %:       -nan  MISS %:       -nan   MPKI: 0
L2C PREFETCH  ACCESS:    1328909  HIT:     595388  MISS:     733521  HIT %:    44.8028  MISS %:    55.1972   MPKI: 2.32078
L2C WRITEBACK ACCESS:     736234  HIT:     644588  MISS:      91646  HIT %:    87.5521  MISS %:    12.4479   MPKI: 0.289958
PSCL5 TOTAL     ACCESS:     672323  HIT:     672323  MISS:          0  HIT %:        100  MISS %:          0   MPKI: 0
PSCL5 LOAD      ACCESS:          0  HIT:          0  MISS:          0  HIT %:       -nan  MISS %:       -nan   MPKI: 0
PSCL5 RFO       ACCESS:          0  HIT:          0  MISS:          0  HIT %:       -nan  MISS %:       -nan   MPKI: 0
PSCL5 PREFETCH  ACCESS:          0  HIT:          0  MISS:          0  HIT %:       -nan  MISS %:       -nan   MPKI: 0
PSCL5 WRITEBACK ACCESS:          0  HIT:          0  MISS:          0  HIT %:       -nan  MISS %:       -nan   MPKI: 0
PSCL4 TOTAL     ACCESS:     672323  HIT:     672323  MISS:          0  HIT %:        100  MISS %:          0   MPKI: 0
PSCL4 LOAD      ACCESS:          0  HIT:          0  MISS:          0  HIT %:       -nan  MISS %:       -nan   MPKI: 0
PSCL4 RFO       ACCESS:          0  HIT:          0  MISS:          0  HIT %:       -nan  MISS %:       -nan   MPKI: 0
PSCL4 PREFETCH  ACCESS:          0  HIT:          0  MISS:          0  HIT %:       -nan  MISS %:       -nan   MPKI: 0
PSCL4 WRITEBACK ACCESS:          0  HIT:          0  MISS:          0  HIT %:       -nan  MISS %:       -nan   MPKI: 0
PSCL3 TOTAL     ACCESS:     672323  HIT:     672323  MISS:          0  HIT %:        100  MISS %:          0   MPKI: 0
PSCL3 LOAD      ACCESS:          0  HIT:          0  MISS:          0  HIT %:       -nan  MISS %:       -nan   MPKI: 0
PSCL3 RFO       ACCESS:          0  HIT:          0  MISS:          0  HIT %:       -nan  MISS %:       -nan   MPKI: 0
PSCL3 PREFETCH  ACCESS:          0  HIT:          0  MISS:          0  HIT %:       -nan  MISS %:       -nan   MPKI: 0
PSCL3 WRITEBACK ACCESS:          0  HIT:          0  MISS:          0  HIT %:       -nan  MISS %:       -nan   MPKI: 0
PSCL2 TOTAL     ACCESS:     671250  HIT:     671236  MISS:         14  HIT %:    99.9979  MISS %: 0.00208566   MPKI: 4.42945e-05
PSCL2 LOAD      ACCESS:          0  HIT:          0  MISS:          0  HIT %:       -nan  MISS %:       -nan   MPKI: 0
PSCL2 RFO       ACCESS:          0  HIT:          0  MISS:          0  HIT %:       -nan  MISS %:       -nan   MPKI: 0
PSCL2 PREFETCH  ACCESS:          0  HIT:          0  MISS:          0  HIT %:       -nan  MISS %:       -nan   MPKI: 0
PSCL2 WRITEBACK ACCESS:          0  HIT:          0  MISS:          0  HIT %:       -nan  MISS %:       -nan   MPKI: 0
LLC TOTAL     ACCESS:    1473958  HIT:     641669  MISS:     832289  HIT %:    43.5337  MISS %:    56.4663   MPKI: 2.63327
LLC LOAD      ACCESS:       2720  HIT:          0  MISS:       2720  HIT %:          0  MISS %:        100   MPKI: 0.00860578
LLC RFO       ACCESS:          0  HIT:          0  MISS:          0  HIT %:       -nan  MISS %:       -nan   MPKI: 0
LLC PREFETCH  ACCESS:     733521  HIT:          0  MISS:     733521  HIT %:          0  MISS %:        100   MPKI: 2.32078
LLC WRITEBACK ACCESS:     736265  HIT:     641669  MISS:      94596  HIT %:    87.1519  MISS %:    12.8481   MPKI: 0.299291

RAW hits: 0
Loads Generated: 47119589
Loads sent to L1D: 47119587
Stores Generated: 6669802
Stores sent to L1D: 6669801

Region of Interest Statistics

CPU 0 cumulative IPC: 1.00959 instructions: 200000001 cycles: 198100094
ITLB TOTAL     ACCESS:   36940961  HIT:   36940961  MISS:          0  HIT %:        100  MISS %:          0   MPKI: 0
ITLB LOAD TRANSLATION ACCESS:   36940961  HIT:   36940961  MISS:          0  HIT %:        100  MISS %:          0   MPKI: 0
ITLB PREFETCH  REQUESTED:          0  ISSUED:          0  USEFUL:          0  USELESS:          0
ITLB USEFUL LOAD PREFETCHES:          0 PREFETCH ISSUED TO LOWER LEVEL:          0  ACCURACY: -nan
ITLB TIMELY PREFETCHES:          0 LATE PREFETCHES: 0 DROPPED PREFETCHES: 0
ITLB PREFETCHES SAME FILL-ORIGIN LEVEL: 0 DIFFERENT FILL-ORIGIN LEVEL: 0
ITLB AVERAGE MISS LATENCY: -nan cycles
ITLB RQ	ACCESS:   37074078	FORWARD:          0	MERGED:     133116	TO_CACHE:   36940962

DTLB TOTAL     ACCESS:   57486825  HIT:   57397168  MISS:      89657  HIT %:     99.844  MISS %:   0.155961   MPKI: 0.448285
DTLB LOAD TRANSLATION ACCESS:   57486825  HIT:   57397168  MISS:      89657  HIT %:     99.844  MISS %:   0.155961   MPKI: 0.448285
DTLB PREFETCH  REQUESTED:          0  ISSUED:          0  USEFUL:          0  USELESS:          0
DTLB USEFUL LOAD PREFETCHES:          0 PREFETCH ISSUED TO LOWER LEVEL:          0  ACCURACY: -nan
DTLB TIMELY PREFETCHES:          0 LATE PREFETCHES: 0 DROPPED PREFETCHES: 0
DTLB PREFETCHES SAME FILL-ORIGIN LEVEL: 0 DIFFERENT FILL-ORIGIN LEVEL: 0
DTLB AVERAGE MISS LATENCY: 102.347 cycles
DTLB RQ	ACCESS:   71860613	FORWARD:          0	MERGED:   14307260	TO_CACHE:   57553353

STLB TOTAL     ACCESS:   19212567  HIT:   19196198  MISS:      16369  HIT %:    99.9148  MISS %:  0.0851994   MPKI: 0.081845
STLB LOAD TRANSLATION ACCESS:      89657  HIT:      73319  MISS:      16338  HIT %:    81.7772  MISS %:    18.2228   MPKI: 0.08169
STLB TRANSLATION FROM L1D PREFETCHER ACCESS:   19122910  HIT:   19122879  MISS:         31  HIT %:    99.9998  MISS %: 0.000162109   MPKI: 0.000155
STLB PREFETCH  REQUESTED:          0  ISSUED:          0  USEFUL:         31  USELESS:          0
STLB USEFUL LOAD PREFETCHES:         31 PREFETCH ISSUED TO LOWER LEVEL:          0  ACCURACY: inf
STLB TIMELY PREFETCHES:         31 LATE PREFETCHES: 2179 DROPPED PREFETCHES: 64310
STLB PREFETCHES SAME FILL-ORIGIN LEVEL: 0 DIFFERENT FILL-ORIGIN LEVEL: 0
STLB AVERAGE MISS LATENCY: 509.313 cycles
STLB RQ	ACCESS:   78658076	FORWARD:          0	MERGED:   59359802	TO_CACHE:   19298274

STLB Hit, L1D data hit: 0
STLB Hit, L2C data hit: 0
STLB Hit, LLC data hit: 0
STLB Hit, LLC data miss: 0
STLB STLB hints to L2: 0
L1D TOTAL     ACCESS:  129917094  HIT:  124930309  MISS:    4986785  HIT %:    96.1616  MISS %:    3.83844   MPKI: 24.9339
L1D LOAD      ACCESS:   28608157  HIT:   27377674  MISS:    1230483  HIT %:    95.6988  MISS %:    4.30116   MPKI: 6.15241
L1D RFO       ACCESS:   34263716  HIT:   32070503  MISS:    2193213  HIT %:     93.599  MISS %:    6.40098   MPKI: 10.9661
L1D PREFETCH  ACCESS:   67045221  HIT:   65482132  MISS:    1563089  HIT %:    97.6686  MISS %:     2.3314   MPKI: 7.81544
L1D PREFETCH  REQUESTED:  201865439  ISSUED:  188859295  USEFUL:    1496053  USELESS:      67067
L1D USEFUL LOAD PREFETCHES:    1496053 PREFETCH ISSUED TO LOWER LEVEL:   11799414  ACCURACY: 12.679
L1D TIMELY PREFETCHES:    1496053 LATE PREFETCHES: 12968 DROPPED PREFETCHES: 123606
L1D PREFETCHES SAME FILL-ORIGIN LEVEL: 1576060 DIFFERENT FILL-ORIGIN LEVEL: 10223354
L1D AVERAGE MISS LATENCY: 119.135 cycles
L1D RQ	ACCESS:   48197677	FORWARD:          0	MERGED:   18294842	TO_CACHE:   29797551
L1D WQ	ACCESS:   42934002	FORWARD:     145226	MERGED:     870940	TO_CACHE:   42063062
L1D PQ	ACCESS:  110290876	FORWARD:          0	MERGED:   31682515	TO_CACHE:   78568419

L1D UNIQUE REGIONS ACCESSED: 0
L1D REGIONS CONFLICTS: 0
L1D Cross Page Prefetch Requests: 11493598
L1D Same Page Prefetch Requests: 128930527
L1D ROI Sum of L1D PQ occupancy: 1045426817
L1D PREFETCHES PUSHED FROM L2C: 0
L1I TOTAL     ACCESS:   37074077  HIT:   37074076  MISS:          1  HIT %:        100  MISS %: 2.6973e-06   MPKI: 5e-06
L1I LOAD      ACCESS:   37074077  HIT:   37074076  MISS:          1  HIT %:        100  MISS %: 2.6973e-06   MPKI: 5e-06
L1I PREFETCH  REQUESTED:          0  ISSUED:          0  USEFUL:          0  USELESS:          0
L1I USEFUL LOAD PREFETCHES:          0 PREFETCH ISSUED TO LOWER LEVEL:          0  ACCURACY: -nan
L1I TIMELY PREFETCHES:          0 LATE PREFETCHES: 0 DROPPED PREFETCHES: 0
L1I PREFETCHES SAME FILL-ORIGIN LEVEL: 0 DIFFERENT FILL-ORIGIN LEVEL: 0
L1I AVERAGE MISS LATENCY: 278 cycles
L1I RQ	ACCESS:   50313871	FORWARD:          0	MERGED:   13239793	TO_CACHE:   37074078

BTB TOTAL     ACCESS:   19983686  HIT:   19983348  MISS:        338  HIT %:    99.9983  MISS %: 0.00169138   MPKI: 0.00169
BTB BRANCH_DIRECT_JUMP	ACCESS:       1127  HIT:       1124  MISS:          3
BTB BRANCH_INDIRECT	ACCESS:          0  HIT:          0  MISS:          0
BTB BRANCH_CONDITIONAL	ACCESS:   19979371  HIT:   19979344  MISS:         27
BTB BRANCH_DIRECT_CALL	ACCESS:       1594  HIT:       1585  MISS:          9
BTB BRANCH_INDIRECT_CALL	ACCESS:          0  HIT:          0  MISS:          0
BTB BRANCH_RETURN	ACCESS:       1594  HIT:       1295  MISS:        299
BTB BRANCH_OTHER ACCESS:          0  HIT:          0  MISS:          0

L2C TOTAL     ACCESS:   15956980  HIT:   11777301  MISS:    4179679  HIT %:    73.8066  MISS %:    26.1934   MPKI: 20.8984
L2C LOAD      ACCESS:    1217509  HIT:     971058  MISS:     246451  HIT %:    79.7578  MISS %:    20.2422   MPKI: 1.23225
L2C DATA LOAD MPKI: 1.23225
L2C INSTRUCTION LOAD MPKI: 5e-06
L2C RFO       ACCESS:    2193136  HIT:     142035  MISS:    2051101  HIT %:    6.47634  MISS %:    93.5237   MPKI: 10.2555
L2C PREFETCH  ACCESS:   10265374  HIT:    8452768  MISS:    1812606  HIT %:    82.3425  MISS %:    17.6575   MPKI: 9.06303
L2C DATA PREFETCH MPKI: 9.06303
L2C INSTRUCTION PREFETCH MPKI: 0
L2C WRITEBACK ACCESS:    2197777  HIT:    2130695  MISS:      67082  HIT %:    96.9477  MISS %:    3.05227   MPKI: 0.33541
L2C LOAD TRANSLATION ACCESS:      16343  HIT:      14955  MISS:       1388  HIT %:    91.5071  MISS %:    8.49293   MPKI: 0.00694
L2C TRANSLATION FROM L1D PREFETCHER ACCESS:      66841  HIT:      65790  MISS:       1051  HIT %:    98.4276  MISS %:    1.57239   MPKI: 0.005255
L2C PREFETCH  REQUESTED:          0  ISSUED:          0  USEFUL:     873073  USELESS:     943835
L2C USEFUL LOAD PREFETCHES:     873073 PREFETCH ISSUED TO LOWER LEVEL:    1937059  ACCURACY: 45.0721
L2C TIMELY PREFETCHES:     873073 LATE PREFETCHES: 124453 DROPPED PREFETCHES: 0
L2C PREFETCHES SAME FILL-ORIGIN LEVEL: 1091671 DIFFERENT FILL-ORIGIN LEVEL: 0
L2C AVERAGE MISS LATENCY: 159.32 cycles
L2C RQ	ACCESS:    3493917	FORWARD:          0	MERGED:          0	TO_CACHE:    3493834
L2C WQ	ACCESS:    2197777	FORWARD:        109	MERGED:          0	TO_CACHE:    2197777
L2C PQ	ACCESS:   11799407	FORWARD:          0	MERGED:     163047	TO_CACHE:   11636334

L2C Instructions Evicting Data 1
L2C Translations Evicting Data 2439
L2C Data Evicting Data 4107765
L2C Instructions Evicting Instructions 0
L2C Translations Evicting Instructions 0
L2C Data Evicting Instructions 1
L2C Instructions Evicting Translations 0
L2C Translations Evicting Translations 0
L2C Data Evicting Translations 2391
L2C Dense regions hint from L2: 0
PSCL5 TOTAL     ACCESS:      82858  HIT:      82858  MISS:          0  HIT %:        100  MISS %:          0   MPKI: 0
PSCL5 LOAD TRANSLATION ACCESS:      16338  HIT:      16338  MISS:          0  HIT %:        100  MISS %:          0   MPKI: 0
PSCL5 TRANSLATION FROM L1D PREFETCHER ACCESS:      66520  HIT:      66520  MISS:          0  HIT %:        100  MISS %:          0   MPKI: 0
PSCL5 PREFETCH  REQUESTED:          0  ISSUED:          0  USEFUL:          0  USELESS:          0
PSCL5 USEFUL LOAD PREFETCHES:          0 PREFETCH ISSUED TO LOWER LEVEL:          0  ACCURACY: -nan
PSCL5 TIMELY PREFETCHES:          0 LATE PREFETCHES: 0 DROPPED PREFETCHES: 0
PSCL5 PREFETCHES SAME FILL-ORIGIN LEVEL: 0 DIFFERENT FILL-ORIGIN LEVEL: 0

PSCL4 TOTAL     ACCESS:      82858  HIT:      82858  MISS:          0  HIT %:        100  MISS %:          0   MPKI: 0
PSCL4 LOAD TRANSLATION ACCESS:      16338  HIT:      16338  MISS:          0  HIT %:        100  MISS %:          0   MPKI: 0
PSCL4 TRANSLATION FROM L1D PREFETCHER ACCESS:      66520  HIT:      66520  MISS:          0  HIT %:        100  MISS %:          0   MPKI: 0
PSCL4 PREFETCH  REQUESTED:          0  ISSUED:          0  USEFUL:          0  USELESS:          0
PSCL4 USEFUL LOAD PREFETCHES:          0 PREFETCH ISSUED TO LOWER LEVEL:          0  ACCURACY: -nan
PSCL4 TIMELY PREFETCHES:          0 LATE PREFETCHES: 0 DROPPED PREFETCHES: 0
PSCL4 PREFETCHES SAME FILL-ORIGIN LEVEL: 0 DIFFERENT FILL-ORIGIN LEVEL: 0

PSCL3 TOTAL     ACCESS:      82858  HIT:      82858  MISS:          0  HIT %:        100  MISS %:          0   MPKI: 0
PSCL3 LOAD TRANSLATION ACCESS:      16338  HIT:      16338  MISS:          0  HIT %:        100  MISS %:          0   MPKI: 0
PSCL3 TRANSLATION FROM L1D PREFETCHER ACCESS:      66520  HIT:      66520  MISS:          0  HIT %:        100  MISS %:          0   MPKI: 0
PSCL3 PREFETCH  REQUESTED:          0  ISSUED:          0  USEFUL:          0  USELESS:          0
PSCL3 USEFUL LOAD PREFETCHES:          0 PREFETCH ISSUED TO LOWER LEVEL:          0  ACCURACY: -nan
PSCL3 TIMELY PREFETCHES:          0 LATE PREFETCHES: 0 DROPPED PREFETCHES: 0
PSCL3 PREFETCHES SAME FILL-ORIGIN LEVEL: 0 DIFFERENT FILL-ORIGIN LEVEL: 0

PSCL2 TOTAL     ACCESS:      82511  HIT:      82473  MISS:         38  HIT %:    99.9539  MISS %:  0.0460545   MPKI: 0.00019
PSCL2 LOAD TRANSLATION ACCESS:      16338  HIT:      16300  MISS:         38  HIT %:    99.7674  MISS %:   0.232587   MPKI: 0.00019
PSCL2 TRANSLATION FROM L1D PREFETCHER ACCESS:      66173  HIT:      66173  MISS:          0  HIT %:        100  MISS %:          0   MPKI: 0
PSCL2 PREFETCH  REQUESTED:          0  ISSUED:          0  USEFUL:          0  USELESS:          0
PSCL2 USEFUL LOAD PREFETCHES:          0 PREFETCH ISSUED TO LOWER LEVEL:          0  ACCURACY: -nan
PSCL2 TIMELY PREFETCHES:          0 LATE PREFETCHES: 0 DROPPED PREFETCHES: 0
PSCL2 PREFETCHES SAME FILL-ORIGIN LEVEL: 0 DIFFERENT FILL-ORIGIN LEVEL: 0

LLC TOTAL     ACCESS:    6180832  HIT:    5030702  MISS:    1150130  HIT %:     81.392  MISS %:     18.608   MPKI: 5.75065
LLC LOAD      ACCESS:     122213  HIT:      44021  MISS:      78192  HIT %:    36.0199  MISS %:    63.9801   MPKI: 0.39096
LLC RFO       ACCESS:    2050885  HIT:    1459707  MISS:     591178  HIT %:    71.1745  MISS %:    28.8255   MPKI: 2.95589
LLC PREFETCH  ACCESS:    1937052  HIT:    1461897  MISS:     475155  HIT %:    75.4702  MISS %:    24.5298   MPKI: 2.37577
LLC WRITEBACK ACCESS:    2068243  HIT:    2064767  MISS:       3476  HIT %:    99.8319  MISS %:   0.168065   MPKI: 0.01738
LLC LOAD TRANSLATION ACCESS:       1388  HIT:        186  MISS:       1202  HIT %:    13.4006  MISS %:    86.5994   MPKI: 0.00601
LLC TRANSLATION FROM L1D PREFETCHER ACCESS:       1051  HIT:        124  MISS:        927  HIT %:    11.7983  MISS %:    88.2017   MPKI: 0.004635
LLC PREFETCH  REQUESTED:          0  ISSUED:          0  USEFUL:     410931  USELESS:    1711678
LLC USEFUL LOAD PREFETCHES:     410931 PREFETCH ISSUED TO LOWER LEVEL:    2139778  ACCURACY: 19.2044
LLC TIMELY PREFETCHES:     410931 LATE PREFETCHES: 0 DROPPED PREFETCHES: 0
LLC PREFETCHES SAME FILL-ORIGIN LEVEL: 0 DIFFERENT FILL-ORIGIN LEVEL: 0
LLC AVERAGE MISS LATENCY: 1135 cycles
LLC RQ	ACCESS:    2591041	FORWARD:          0	MERGED:          0	TO_CACHE:    2591040
LLC WQ	ACCESS:    3741431	FORWARD:          8	MERGED:          0	TO_CACHE:    3741431
LLC PQ	ACCESS:    3607699	FORWARD:          0	MERGED:          0	TO_CACHE:    3607692

LLC Dense regions hint to LLC: 0

RAW hits: 2962093
Loads Generated: 51159771
Loads sent to L1D: 48197677
Stores Generated: 42934005
Stores sent to L1D: 42934002
Major fault: 0 Minor fault: 21110
Allocated PAGES: 53374

CPU 1 cumulative IPC: 1.1549 instructions: 200000002 cycles: 173175223
ITLB TOTAL     ACCESS:   33204216  HIT:   33204216  MISS:          0  HIT %:        100  MISS %:          0   MPKI: 0
ITLB LOAD TRANSLATION ACCESS:   33204216  HIT:   33204216  MISS:          0  HIT %:        100  MISS %:          0   MPKI: 0
ITLB PREFETCH  REQUESTED:          0  ISSUED:          0  USEFUL:          0  USELESS:          0
ITLB USEFUL LOAD PREFETCHES:          0 PREFETCH ISSUED TO LOWER LEVEL:          0  ACCURACY: -nan
ITLB TIMELY PREFETCHES:          0 LATE PREFETCHES: 0 DROPPED PREFETCHES: 0
ITLB PREFETCHES SAME FILL-ORIGIN LEVEL: 0 DIFFERENT FILL-ORIGIN LEVEL: 0
ITLB AVERAGE MISS LATENCY: -nan cycles
ITLB RQ	ACCESS:   38084656	FORWARD:          0	MERGED:          0	TO_CACHE:   38084656

DTLB TOTAL     ACCESS:   18084577  HIT:   18077287  MISS:       7290  HIT %:    99.9597  MISS %:  0.0403106   MPKI: 0.03645
DTLB LOAD TRANSLATION ACCESS:   18084577  HIT:   18077287  MISS:       7290  HIT %:    99.9597  MISS %:  0.0403106   MPKI: 0.03645
DTLB PREFETCH  REQUESTED:          0  ISSUED:          0  USEFUL:          0  USELESS:          0
DTLB USEFUL LOAD PREFETCHES:          0 PREFETCH ISSUED TO LOWER LEVEL:          0  ACCURACY: -nan
DTLB TIMELY PREFETCHES:          0 LATE PREFETCHES: 0 DROPPED PREFETCHES: 0
DTLB PREFETCHES SAME FILL-ORIGIN LEVEL: 0 DIFFERENT FILL-ORIGIN LEVEL: 0
DTLB AVERAGE MISS LATENCY: 120.72 cycles
DTLB RQ	ACCESS:   21390896	FORWARD:          0	MERGED:     635346	TO_CACHE:   20755550

STLB TOTAL     ACCESS:   11253730  HIT:   11246440  MISS:       7290  HIT %:    99.9352  MISS %:  0.0647785   MPKI: 0.03645
STLB LOAD TRANSLATION ACCESS:       7290  HIT:          0  MISS:       7290  HIT %:          0  MISS %:        100   MPKI: 0.03645
STLB TRANSLATION FROM L1D PREFETCHER ACCESS:   11246440  HIT:   11246440  MISS:          0  HIT %:        100  MISS %:          0   MPKI: 0
STLB PREFETCH  REQUESTED:          0  ISSUED:          0  USEFUL:       1062  USELESS:          0
STLB USEFUL LOAD PREFETCHES:       1062 PREFETCH ISSUED TO LOWER LEVEL:          0  ACCURACY: inf
STLB TIMELY PREFETCHES:       1062 LATE PREFETCHES: 1541 DROPPED PREFETCHES: 1034183
STLB PREFETCHES SAME FILL-ORIGIN LEVEL: 0 DIFFERENT FILL-ORIGIN LEVEL: 0
STLB AVERAGE MISS LATENCY: 122.288 cycles
STLB RQ	ACCESS:   76731599	FORWARD:          0	MERGED:   62381790	TO_CACHE:   14349809

STLB Hit, L1D data hit: 0
STLB Hit, L2C data hit: 0
STLB Hit, LLC data hit: 0
STLB Hit, LLC data miss: 0
STLB STLB hints to L2: 0
L1D TOTAL     ACCESS:   74431237  HIT:   73964755  MISS:     466482  HIT %:    99.3733  MISS %:   0.626729   MPKI: 2.33241
L1D LOAD      ACCESS:   14398601  HIT:   14389664  MISS:       8937  HIT %:    99.9379  MISS %:  0.0620685   MPKI: 0.044685
L1D RFO       ACCESS:    4174851  HIT:    4174851  MISS:          0  HIT %:        100  MISS %:          0   MPKI: 0
L1D PREFETCH  ACCESS:   55857785  HIT:   55400240  MISS:     457545  HIT %:    99.1809  MISS %:   0.819125   MPKI: 2.28772
L1D PREFETCH  REQUESTED:  204737994  ISSUED:  204726547  USEFUL:     525417  USELESS:         16
L1D USEFUL LOAD PREFETCHES:     525417 PREFETCH ISSUED TO LOWER LEVEL:    2721709  ACCURACY: 19.3047
L1D TIMELY PREFETCHES:     525417 LATE PREFETCHES: 5524 DROPPED PREFETCHES: 2966391
L1D PREFETCHES SAME FILL-ORIGIN LEVEL: 530957 DIFFERENT FILL-ORIGIN LEVEL: 2190752
L1D AVERAGE MISS LATENCY: 377.851 cycles
L1D RQ	ACCESS:   34202074	FORWARD:          0	MERGED:   17641220	TO_CACHE:   16560854
L1D WQ	ACCESS:    4830042	FORWARD:          0	MERGED:          0	TO_CACHE:    4830042
L1D PQ	ACCESS:  128003300	FORWARD:          0	MERGED:   51280053	TO_CACHE:   76723247

L1D UNIQUE REGIONS ACCESSED: 0
L1D REGIONS CONFLICTS: 0
L1D Cross Page Prefetch Requests: 16133454
L1D Same Page Prefetch Requests: 169930392
L1D ROI Sum of L1D PQ occupancy: 991604737
L1D PREFETCHES PUSHED FROM L2C: 0
L1I TOTAL     ACCESS:   33204216  HIT:   33204216  MISS:          0  HIT %:        100  MISS %:          0   MPKI: 0
L1I LOAD      ACCESS:   33204216  HIT:   33204216  MISS:          0  HIT %:        100  MISS %:          0   MPKI: 0
L1I PREFETCH  REQUESTED:          0  ISSUED:          0  USEFUL:          0  USELESS:          0
L1I USEFUL LOAD PREFETCHES:          0 PREFETCH ISSUED TO LOWER LEVEL:          0  ACCURACY: -nan
L1I TIMELY PREFETCHES:          0 LATE PREFETCHES: 0 DROPPED PREFETCHES: 0
L1I PREFETCHES SAME FILL-ORIGIN LEVEL: 0 DIFFERENT FILL-ORIGIN LEVEL: 0
L1I AVERAGE MISS LATENCY: -nan cycles
L1I RQ	ACCESS:   91705593	FORWARD:          0	MERGED:   53620937	TO_CACHE:   38084656

BTB TOTAL     ACCESS:   59708613  HIT:   59708612  MISS:          1  HIT %:        100  MISS %: 1.6748e-06   MPKI: 5e-06
BTB BRANCH_DIRECT_JUMP	ACCESS:          0  HIT:          0  MISS:          0
BTB BRANCH_INDIRECT	ACCESS:          0  HIT:          0  MISS:          0
BTB BRANCH_CONDITIONAL	ACCESS:   59708613  HIT:   59708612  MISS:          1
BTB BRANCH_DIRECT_CALL	ACCESS:          0  HIT:          0  MISS:          0
BTB BRANCH_INDIRECT_CALL	ACCESS:          0  HIT:          0  MISS:          0
BTB BRANCH_RETURN	ACCESS:          0  HIT:          0  MISS:          0
BTB BRANCH_OTHER ACCESS:          0  HIT:          0  MISS:          0

L2C TOTAL     ACCESS:    2879210  HIT:    2355786  MISS:     523424  HIT %:    81.8206  MISS %:    18.1794   MPKI: 2.61712
L2C LOAD      ACCESS:       3468  HIT:          0  MISS:       3468  HIT %:          0  MISS %:        100   MPKI: 0.01734
L2C DATA LOAD MPKI: 0.01734
L2C INSTRUCTION LOAD MPKI: 0
L2C PREFETCH  ACCESS:    1366247  HIT:     903233  MISS:     463014  HIT %:    66.1105  MISS %:    33.8895   MPKI: 2.31507
L2C DATA PREFETCH MPKI: 2.31507
L2C INSTRUCTION PREFETCH MPKI: 0
L2C WRITEBACK ACCESS:     466481  HIT:     410466  MISS:      56015  HIT %:     87.992  MISS %:     12.008   MPKI: 0.280075
L2C LOAD TRANSLATION ACCESS:       7290  HIT:       7289  MISS:          1  HIT %:    99.9863  MISS %:  0.0137174   MPKI: 5e-06
L2C TRANSLATION FROM L1D PREFETCHER ACCESS:    1035724  HIT:    1034798  MISS:        926  HIT %:    99.9106  MISS %:  0.0894061   MPKI: 0.00463
L2C PREFETCH  REQUESTED:          0  ISSUED:          0  USEFUL:       1059  USELESS:     531025
L2C USEFUL LOAD PREFETCHES:       1059 PREFETCH ISSUED TO LOWER LEVEL:     530957  ACCURACY: 0.199451
L2C TIMELY PREFETCHES:       1059 LATE PREFETCHES: 0 DROPPED PREFETCHES: 0
L2C PREFETCHES SAME FILL-ORIGIN LEVEL: 100009 DIFFERENT FILL-ORIGIN LEVEL: 0
L2C AVERAGE MISS LATENCY: 394.264 cycles
L2C RQ	ACCESS:    1047544	FORWARD:          0	MERGED:          0	TO_CACHE:    1047544
L2C WQ	ACCESS:     534407	FORWARD:          0	MERGED:          0	TO_CACHE:     534407
L2C PQ	ACCESS:    2721709	FORWARD:          0	MERGED:        642	TO_CACHE:    2721067

L2C Instructions Evicting Data 0
L2C Translations Evicting Data 1060
L2C Data Evicting Data 533459
L2C Instructions Evicting Instructions 0
L2C Translations Evicting Instructions 0
L2C Data Evicting Instructions 0
L2C Instructions Evicting Translations 0
L2C Translations Evicting Translations 0
L2C Data Evicting Translations 964
L2C Dense regions hint from L2: 0
PSCL5 TOTAL     ACCESS:    1043014  HIT:    1043014  MISS:          0  HIT %:        100  MISS %:          0   MPKI: 0
PSCL5 LOAD TRANSLATION ACCESS:       7290  HIT:       7290  MISS:          0  HIT %:        100  MISS %:          0   MPKI: 0
PSCL5 TRANSLATION FROM L1D PREFETCHER ACCESS:    1035724  HIT:    1035724  MISS:          0  HIT %:        100  MISS %:          0   MPKI: 0
PSCL5 PREFETCH  REQUESTED:          0  ISSUED:          0  USEFUL:          0  USELESS:          0
PSCL5 USEFUL LOAD PREFETCHES:          0 PREFETCH ISSUED TO LOWER LEVEL:          0  ACCURACY: -nan
PSCL5 TIMELY PREFETCHES:          0 LATE PREFETCHES: 0 DROPPED PREFETCHES: 0
PSCL5 PREFETCHES SAME FILL-ORIGIN LEVEL: 0 DIFFERENT FILL-ORIGIN LEVEL: 0

PSCL4 TOTAL     ACCESS:    1043014  HIT:    1043014  MISS:          0  HIT %:        100  MISS %:          0   MPKI: 0
PSCL4 LOAD TRANSLATION ACCESS:       7290  HIT:       7290  MISS:          0  HIT %:        100  MISS %:          0   MPKI: 0
PSCL4 TRANSLATION FROM L1D PREFETCHER ACCESS:    1035724  HIT:    1035724  MISS:          0  HIT %:        100  MISS %:          0   MPKI: 0
PSCL4 PREFETCH  REQUESTED:          0  ISSUED:          0  USEFUL:          0  USELESS:          0
PSCL4 USEFUL LOAD PREFETCHES:          0 PREFETCH ISSUED TO LOWER LEVEL:          0  ACCURACY: -nan
PSCL4 TIMELY PREFETCHES:          0 LATE PREFETCHES: 0 DROPPED PREFETCHES: 0
PSCL4 PREFETCHES SAME FILL-ORIGIN LEVEL: 0 DIFFERENT FILL-ORIGIN LEVEL: 0

PSCL3 TOTAL     ACCESS:    1043014  HIT:    1043014  MISS:          0  HIT %:        100  MISS %:          0   MPKI: 0
PSCL3 LOAD TRANSLATION ACCESS:       7290  HIT:       7290  MISS:          0  HIT %:        100  MISS %:          0   MPKI: 0
PSCL3 TRANSLATION FROM L1D PREFETCHER ACCESS:    1035724  HIT:    1035724  MISS:          0  HIT %:        100  MISS %:          0   MPKI: 0
PSCL3 PREFETCH  REQUESTED:          0  ISSUED:          0  USEFUL:          0  USELESS:          0
PSCL3 USEFUL LOAD PREFETCHES:          0 PREFETCH ISSUED TO LOWER LEVEL:          0  ACCURACY: -nan
PSCL3 TIMELY PREFETCHES:          0 LATE PREFETCHES: 0 DROPPED PREFETCHES: 0
PSCL3 PREFETCHES SAME FILL-ORIGIN LEVEL: 0 DIFFERENT FILL-ORIGIN LEVEL: 0

PSCL2 TOTAL     ACCESS:    1040975  HIT:    1040960  MISS:         15  HIT %:    99.9986  MISS %: 0.00144096   MPKI: 7.5e-05
PSCL2 LOAD TRANSLATION ACCESS:       7290  HIT:       7275  MISS:         15  HIT %:    99.7942  MISS %:   0.205761   MPKI: 7.5e-05
PSCL2 TRANSLATION FROM L1D PREFETCHER ACCESS:    1033685  HIT:    1033685  MISS:          0  HIT %:        100  MISS %:          0   MPKI: 0
PSCL2 PREFETCH  REQUESTED:          0  ISSUED:          0  USEFUL:          0  USELESS:          0
PSCL2 USEFUL LOAD PREFETCHES:          0 PREFETCH ISSUED TO LOWER LEVEL:          0  ACCURACY: -nan
PSCL2 TIMELY PREFETCHES:          0 LATE PREFETCHES: 0 DROPPED PREFETCHES: 0
PSCL2 PREFETCHES SAME FILL-ORIGIN LEVEL: 0 DIFFERENT FILL-ORIGIN LEVEL: 0

LLC TOTAL     ACCESS:     933885  HIT:     362312  MISS:     571573  HIT %:    38.7962  MISS %:    61.2038   MPKI: 2.85786
LLC LOAD      ACCESS:       3468  HIT:          0  MISS:       3468  HIT %:          0  MISS %:        100   MPKI: 0.01734
LLC PREFETCH  ACCESS:     463014  HIT:          0  MISS:     463014  HIT %:          0  MISS %:        100   MPKI: 2.31507
LLC WRITEBACK ACCESS:     466476  HIT:     362312  MISS:     104164  HIT %:      77.67  MISS %:      22.33   MPKI: 0.52082
LLC LOAD TRANSLATION ACCESS:          1  HIT:          0  MISS:          1  HIT %:          0  MISS %:        100   MPKI: 5e-06
LLC TRANSLATION FROM L1D PREFETCHER ACCESS:        926  HIT:          0  MISS:        926  HIT %:          0  MISS %:        100   MPKI: 0.00463
LLC PREFETCH  REQUESTED:          0  ISSUED:          0  USEFUL:     410931  USELESS:    1711678
LLC USEFUL LOAD PREFETCHES:     410931 PREFETCH ISSUED TO LOWER LEVEL:    2139778  ACCURACY: 19.2044
LLC TIMELY PREFETCHES:     410931 LATE PREFETCHES: 0 DROPPED PREFETCHES: 0
LLC PREFETCHES SAME FILL-ORIGIN LEVEL: 0 DIFFERENT FILL-ORIGIN LEVEL: 0
LLC AVERAGE MISS LATENCY: 2283.88 cycles
LLC RQ	ACCESS:    2591041	FORWARD:          0	MERGED:          0	TO_CACHE:    2591040
LLC WQ	ACCESS:    3741431	FORWARD:          8	MERGED:          0	TO_CACHE:    3741431
LLC PQ	ACCESS:    3607699	FORWARD:          0	MERGED:          0	TO_CACHE:    3607692

LLC Dense regions hint to LLC: 0

RAW hits: 0
Loads Generated: 29854309
Loads sent to L1D: 29854308
Stores Generated: 4174854
Stores sent to L1D: 4174851
Major fault: 0 Minor fault: 9127
Allocated PAGES: 53374

CPU 2 cumulative IPC: 1.13382 instructions: 200000000 cycles: 176395445
ITLB TOTAL     ACCESS:   33181693  HIT:   33181693  MISS:          0  HIT %:        100  MISS %:          0   MPKI: 0
ITLB LOAD TRANSLATION ACCESS:   33181693  HIT:   33181693  MISS:          0  HIT %:        100  MISS %:          0   MPKI: 0
ITLB PREFETCH  REQUESTED:          0  ISSUED:          0  USEFUL:          0  USELESS:          0
ITLB USEFUL LOAD PREFETCHES:          0 PREFETCH ISSUED TO LOWER LEVEL:          0  ACCURACY: -nan
ITLB TIMELY PREFETCHES:          0 LATE PREFETCHES: 0 DROPPED PREFETCHES: 0
ITLB PREFETCHES SAME FILL-ORIGIN LEVEL: 0 DIFFERENT FILL-ORIGIN LEVEL: 0
ITLB AVERAGE MISS LATENCY: -nan cycles
ITLB RQ	ACCESS:   37333055	FORWARD:          0	MERGED:          0	TO_CACHE:   37333055

DTLB TOTAL     ACCESS:   33835863  HIT:   33824686  MISS:      11177  HIT %:     99.967  MISS %:   0.033033   MPKI: 0.055885
DTLB LOAD TRANSLATION ACCESS:   33835863  HIT:   33824686  MISS:      11177  HIT %:     99.967  MISS %:   0.033033   MPKI: 0.055885
DTLB PREFETCH  REQUESTED:          0  ISSUED:          0  USEFUL:          0  USELESS:          0
DTLB USEFUL LOAD PREFETCHES:          0 PREFETCH ISSUED TO LOWER LEVEL:          0  ACCURACY: -nan
DTLB TIMELY PREFETCHES:          0 LATE PREFETCHES: 0 DROPPED PREFETCHES: 0
DTLB PREFETCHES SAME FILL-ORIGIN LEVEL: 0 DIFFERENT FILL-ORIGIN LEVEL: 0
DTLB AVERAGE MISS LATENCY: 155.64 cycles
DTLB RQ	ACCESS:   39807148	FORWARD:          0	MERGED:    1691088	TO_CACHE:   38116060

STLB TOTAL     ACCESS:   10139404  HIT:   10128227  MISS:      11177  HIT %:    99.8898  MISS %:   0.110233   MPKI: 0.055885
STLB LOAD TRANSLATION ACCESS:      11177  HIT:          0  MISS:      11177  HIT %:          0  MISS %:        100   MPKI: 0.055885
STLB TRANSLATION FROM L1D PREFETCHER ACCESS:   10128227  HIT:   10128227  MISS:          0  HIT %:        100  MISS %:          0   MPKI: 0
STLB PREFETCH  REQUESTED:          0  ISSUED:          0  USEFUL:        711  USELESS:          0
STLB USEFUL LOAD PREFETCHES:        711 PREFETCH ISSUED TO LOWER LEVEL:          0  ACCURACY: inf
STLB TIMELY PREFETCHES:        711 LATE PREFETCHES: 1079 DROPPED PREFETCHES: 1776916
STLB PREFETCHES SAME FILL-ORIGIN LEVEL: 0 DIFFERENT FILL-ORIGIN LEVEL: 0
STLB AVERAGE MISS LATENCY: 151.646 cycles
STLB RQ	ACCESS:   65132110	FORWARD:          0	MERGED:   51489933	TO_CACHE:   13642177

STLB Hit, L1D data hit: 0
STLB Hit, L2C data hit: 0
STLB Hit, LLC data hit: 0
STLB Hit, LLC data miss: 0
STLB STLB hints to L2: 0
L1D TOTAL     ACCESS:   69961672  HIT:   69246363  MISS:     715309  HIT %:    98.9776  MISS %:    1.02243   MPKI: 3.57654
L1D LOAD      ACCESS:   12459712  HIT:   12453367  MISS:       6345  HIT %:    99.9491  MISS %:  0.0509241   MPKI: 0.031725
L1D RFO       ACCESS:    8967143  HIT:    8609484  MISS:     357659  HIT %:    96.0114  MISS %:    3.98855   MPKI: 1.78829
L1D PREFETCH  ACCESS:   48534817  HIT:   48183512  MISS:     351305  HIT %:    99.2762  MISS %:   0.723821   MPKI: 1.75652
L1D PREFETCH  REQUESTED:  170915669  ISSUED:  170896173  USEFUL:     396061  USELESS:          8
L1D USEFUL LOAD PREFETCHES:     396061 PREFETCH ISSUED TO LOWER LEVEL:    2249288  ACCURACY: 17.6083
L1D TIMELY PREFETCHES:     396061 LATE PREFETCHES: 3567 DROPPED PREFETCHES: 3575727
L1D PREFETCHES SAME FILL-ORIGIN LEVEL: 399633 DIFFERENT FILL-ORIGIN LEVEL: 1849655
L1D AVERAGE MISS LATENCY: 378.346 cycles
L1D RQ	ACCESS:   48124623	FORWARD:          0	MERGED:   34071631	TO_CACHE:   14052992
L1D WQ	ACCESS:   25754156	FORWARD:          0	MERGED:          0	TO_CACHE:   25754156
L1D PQ	ACCESS:  105776641	FORWARD:          0	MERGED:   40657109	TO_CACHE:   65119532

L1D UNIQUE REGIONS ACCESSED: 0
L1D REGIONS CONFLICTS: 0
L1D Cross Page Prefetch Requests: 16076066
L1D Same Page Prefetch Requests: 136596725
L1D ROI Sum of L1D PQ occupancy: 968381103
L1D PREFETCHES PUSHED FROM L2C: 0
L1I TOTAL     ACCESS:   33181693  HIT:   33181693  MISS:          0  HIT %:        100  MISS %:          0   MPKI: 0
L1I LOAD      ACCESS:   33181693  HIT:   33181693  MISS:          0  HIT %:        100  MISS %:          0   MPKI: 0
L1I PREFETCH  REQUESTED:          0  ISSUED:          0  USEFUL:          0  USELESS:          0
L1I USEFUL LOAD PREFETCHES:          0 PREFETCH ISSUED TO LOWER LEVEL:          0  ACCURACY: -nan
L1I TIMELY PREFETCHES:          0 LATE PREFETCHES: 0 DROPPED PREFETCHES: 0
L1I PREFETCHES SAME FILL-ORIGIN LEVEL: 0 DIFFERENT FILL-ORIGIN LEVEL: 0
L1I AVERAGE MISS LATENCY: -nan cycles
L1I RQ	ACCESS:   62429647	FORWARD:          0	MERGED:   25096592	TO_CACHE:   37333055

BTB TOTAL     ACCESS:   45780350  HIT:   45780348  MISS:          2  HIT %:        100  MISS %: 4.36869e-06   MPKI: 1e-05
BTB BRANCH_DIRECT_JUMP	ACCESS:          0  HIT:          0  MISS:          0
BTB BRANCH_INDIRECT	ACCESS:          0  HIT:          0  MISS:          0
BTB BRANCH_CONDITIONAL	ACCESS:   45780350  HIT:   45780348  MISS:          2
BTB BRANCH_DIRECT_CALL	ACCESS:          0  HIT:          0  MISS:          0
BTB BRANCH_INDIRECT_CALL	ACCESS:          0  HIT:          0  MISS:          0
BTB BRANCH_RETURN	ACCESS:          0  HIT:          0  MISS:          0
BTB BRANCH_OTHER ACCESS:          0  HIT:          0  MISS:          0

L2C TOTAL     ACCESS:    3774796  HIT:    3010972  MISS:     763824  HIT %:    79.7652  MISS %:    20.2348   MPKI: 3.81912
L2C LOAD      ACCESS:       2781  HIT:          0  MISS:       2781  HIT %:          0  MISS %:        100   MPKI: 0.013905
L2C DATA LOAD MPKI: 0.013905
L2C INSTRUCTION LOAD MPKI: 0
L2C RFO       ACCESS:     357659  HIT:          0  MISS:     357659  HIT %:          0  MISS %:        100   MPKI: 1.78829
L2C PREFETCH  ACCESS:    1267525  HIT:     912656  MISS:     354869  HIT %:     72.003  MISS %:     27.997   MPKI: 1.77435
L2C DATA PREFETCH MPKI: 1.77435
L2C INSTRUCTION PREFETCH MPKI: 0
L2C WRITEBACK ACCESS:     357659  HIT:     310568  MISS:      47091  HIT %:    86.8335  MISS %:    13.1665   MPKI: 0.235455
L2C LOAD TRANSLATION ACCESS:      11177  HIT:      10466  MISS:        711  HIT %:    93.6387  MISS %:    6.36128   MPKI: 0.003555
L2C TRANSLATION FROM L1D PREFETCHER ACCESS:    1777995  HIT:    1777282  MISS:        713  HIT %:    99.9599  MISS %:  0.0401014   MPKI: 0.003565
L2C PREFETCH  REQUESTED:          0  ISSUED:          0  USEFUL:        802  USELESS:     405937
L2C USEFUL LOAD PREFETCHES:        802 PREFETCH ISSUED TO LOWER LEVEL:     406160  ACCURACY: 0.197459
L2C TIMELY PREFETCHES:        802 LATE PREFETCHES: 0 DROPPED PREFETCHES: 0
L2C PREFETCHES SAME FILL-ORIGIN LEVEL: 110158 DIFFERENT FILL-ORIGIN LEVEL: 0
L2C AVERAGE MISS LATENCY: 399.618 cycles
L2C RQ	ACCESS:    2195777	FORWARD:          0	MERGED:          0	TO_CACHE:    2195777
L2C WQ	ACCESS:     402410	FORWARD:          0	MERGED:          0	TO_CACHE:     402410
L2C PQ	ACCESS:    2249288	FORWARD:          0	MERGED:        356	TO_CACHE:    2248932

L2C Instructions Evicting Data 0
L2C Translations Evicting Data 1604
L2C Data Evicting Data 809842
L2C Instructions Evicting Instructions 0
L2C Translations Evicting Instructions 0
L2C Data Evicting Instructions 0
L2C Instructions Evicting Translations 0
L2C Translations Evicting Translations 1
L2C Data Evicting Translations 1509
L2C Dense regions hint from L2: 0
PSCL5 TOTAL     ACCESS:    1789173  HIT:    1789173  MISS:          0  HIT %:        100  MISS %:          0   MPKI: 0
PSCL5 LOAD TRANSLATION ACCESS:      11178  HIT:      11178  MISS:          0  HIT %:        100  MISS %:          0   MPKI: 0
PSCL5 TRANSLATION FROM L1D PREFETCHER ACCESS:    1777995  HIT:    1777995  MISS:          0  HIT %:        100  MISS %:          0   MPKI: 0
PSCL5 PREFETCH  REQUESTED:          0  ISSUED:          0  USEFUL:          0  USELESS:          0
PSCL5 USEFUL LOAD PREFETCHES:          0 PREFETCH ISSUED TO LOWER LEVEL:          0  ACCURACY: -nan
PSCL5 TIMELY PREFETCHES:          0 LATE PREFETCHES: 0 DROPPED PREFETCHES: 0
PSCL5 PREFETCHES SAME FILL-ORIGIN LEVEL: 0 DIFFERENT FILL-ORIGIN LEVEL: 0

PSCL4 TOTAL     ACCESS:    1789173  HIT:    1789173  MISS:          0  HIT %:        100  MISS %:          0   MPKI: 0
PSCL4 LOAD TRANSLATION ACCESS:      11178  HIT:      11178  MISS:          0  HIT %:        100  MISS %:          0   MPKI: 0
PSCL4 TRANSLATION FROM L1D PREFETCHER ACCESS:    1777995  HIT:    1777995  MISS:          0  HIT %:        100  MISS %:          0   MPKI: 0
PSCL4 PREFETCH  REQUESTED:          0  ISSUED:          0  USEFUL:          0  USELESS:          0
PSCL4 USEFUL LOAD PREFETCHES:          0 PREFETCH ISSUED TO LOWER LEVEL:          0  ACCURACY: -nan
PSCL4 TIMELY PREFETCHES:          0 LATE PREFETCHES: 0 DROPPED PREFETCHES: 0
PSCL4 PREFETCHES SAME FILL-ORIGIN LEVEL: 0 DIFFERENT FILL-ORIGIN LEVEL: 0

PSCL3 TOTAL     ACCESS:    1789173  HIT:    1789173  MISS:          0  HIT %:        100  MISS %:          0   MPKI: 0
PSCL3 LOAD TRANSLATION ACCESS:      11178  HIT:      11178  MISS:          0  HIT %:        100  MISS %:          0   MPKI: 0
PSCL3 TRANSLATION FROM L1D PREFETCHER ACCESS:    1777995  HIT:    1777995  MISS:          0  HIT %:        100  MISS %:          0   MPKI: 0
PSCL3 PREFETCH  REQUESTED:          0  ISSUED:          0  USEFUL:          0  USELESS:          0
PSCL3 USEFUL LOAD PREFETCHES:          0 PREFETCH ISSUED TO LOWER LEVEL:          0  ACCURACY: -nan
PSCL3 TIMELY PREFETCHES:          0 LATE PREFETCHES: 0 DROPPED PREFETCHES: 0
PSCL3 PREFETCHES SAME FILL-ORIGIN LEVEL: 0 DIFFERENT FILL-ORIGIN LEVEL: 0

PSCL2 TOTAL     ACCESS:    1766071  HIT:    1766049  MISS:         22  HIT %:    99.9988  MISS %:  0.0012457   MPKI: 0.00011
PSCL2 LOAD TRANSLATION ACCESS:      11178  HIT:      11156  MISS:         22  HIT %:    99.8032  MISS %:   0.196815   MPKI: 0.00011
PSCL2 TRANSLATION FROM L1D PREFETCHER ACCESS:    1754893  HIT:    1754893  MISS:          0  HIT %:        100  MISS %:          0   MPKI: 0
PSCL2 PREFETCH  REQUESTED:          0  ISSUED:          0  USEFUL:          0  USELESS:          0
PSCL2 USEFUL LOAD PREFETCHES:          0 PREFETCH ISSUED TO LOWER LEVEL:          0  ACCURACY: -nan
PSCL2 TIMELY PREFETCHES:          0 LATE PREFETCHES: 0 DROPPED PREFETCHES: 0
PSCL2 PREFETCHES SAME FILL-ORIGIN LEVEL: 0 DIFFERENT FILL-ORIGIN LEVEL: 0

LLC TOTAL     ACCESS:    1074451  HIT:     314556  MISS:     759895  HIT %:     29.276  MISS %:     70.724   MPKI: 3.79948
LLC LOAD      ACCESS:       2781  HIT:          0  MISS:       2781  HIT %:          0  MISS %:        100   MPKI: 0.013905
LLC RFO       ACCESS:     357659  HIT:          0  MISS:     357659  HIT %:          0  MISS %:        100   MPKI: 1.78829
LLC PREFETCH  ACCESS:     354869  HIT:          0  MISS:     354869  HIT %:          0  MISS %:        100   MPKI: 1.77435
LLC WRITEBACK ACCESS:     357718  HIT:     314551  MISS:      43167  HIT %:    87.9327  MISS %:    12.0673   MPKI: 0.215835
LLC LOAD TRANSLATION ACCESS:        711  HIT:          2  MISS:        709  HIT %:   0.281294  MISS %:    99.7187   MPKI: 0.003545
LLC TRANSLATION FROM L1D PREFETCHER ACCESS:        713  HIT:          3  MISS:        710  HIT %:   0.420757  MISS %:    99.5792   MPKI: 0.00355
LLC PREFETCH  REQUESTED:          0  ISSUED:          0  USEFUL:     410931  USELESS:    1711678
LLC USEFUL LOAD PREFETCHES:     410931 PREFETCH ISSUED TO LOWER LEVEL:    2139778  ACCURACY: 19.2044
LLC TIMELY PREFETCHES:     410931 LATE PREFETCHES: 0 DROPPED PREFETCHES: 0
LLC PREFETCHES SAME FILL-ORIGIN LEVEL: 0 DIFFERENT FILL-ORIGIN LEVEL: 0
LLC AVERAGE MISS LATENCY: 1717.87 cycles
LLC RQ	ACCESS:    2591041	FORWARD:          0	MERGED:          0	TO_CACHE:    2591040
LLC WQ	ACCESS:    3741431	FORWARD:          8	MERGED:          0	TO_CACHE:    3741431
LLC PQ	ACCESS:    3607699	FORWARD:          0	MERGED:          0	TO_CACHE:    3607692

LLC Dense regions hint to LLC: 0

RAW hits: 0
Loads Generated: 42774656
Loads sent to L1D: 42774652
Stores Generated: 22890146
Stores sent to L1D: 22890146
Major fault: 0 Minor fault: 14010
Allocated PAGES: 53374

CPU 3 cumulative IPC: 1.5716 instructions: 200000002 cycles: 127259232
ITLB TOTAL     ACCESS:   43288334  HIT:   43288334  MISS:          0  HIT %:        100  MISS %:          0   MPKI: 0
ITLB LOAD TRANSLATION ACCESS:   43288334  HIT:   43288334  MISS:          0  HIT %:        100  MISS %:          0   MPKI: 0
ITLB PREFETCH  REQUESTED:          0  ISSUED:          0  USEFUL:          0  USELESS:          0
ITLB USEFUL LOAD PREFETCHES:          0 PREFETCH ISSUED TO LOWER LEVEL:          0  ACCURACY: -nan
ITLB TIMELY PREFETCHES:          0 LATE PREFETCHES: 0 DROPPED PREFETCHES: 0
ITLB PREFETCHES SAME FILL-ORIGIN LEVEL: 0 DIFFERENT FILL-ORIGIN LEVEL: 0
ITLB AVERAGE MISS LATENCY: -nan cycles
ITLB RQ	ACCESS:   68098799	FORWARD:          0	MERGED:     132249	TO_CACHE:   67966550

DTLB TOTAL     ACCESS:   13779929  HIT:   13772639  MISS:       7290  HIT %:    99.9471  MISS %:   0.052903   MPKI: 0.03645
DTLB LOAD TRANSLATION ACCESS:   13779929  HIT:   13772639  MISS:       7290  HIT %:    99.9471  MISS %:   0.052903   MPKI: 0.03645
DTLB PREFETCH  REQUESTED:          0  ISSUED:          0  USEFUL:          0  USELESS:          0
DTLB USEFUL LOAD PREFETCHES:          0 PREFETCH ISSUED TO LOWER LEVEL:          0  ACCURACY: -nan
DTLB TIMELY PREFETCHES:          0 LATE PREFETCHES: 0 DROPPED PREFETCHES: 0
DTLB PREFETCHES SAME FILL-ORIGIN LEVEL: 0 DIFFERENT FILL-ORIGIN LEVEL: 0
DTLB AVERAGE MISS LATENCY: 122.585 cycles
DTLB RQ	ACCESS:   23834374	FORWARD:          0	MERGED:    2018627	TO_CACHE:   21815747

STLB TOTAL     ACCESS:    6621373  HIT:    6614083  MISS:       7290  HIT %:    99.8899  MISS %:   0.110098   MPKI: 0.03645
STLB LOAD TRANSLATION ACCESS:       7290  HIT:         62  MISS:       7228  HIT %:    0.85048  MISS %:    99.1495   MPKI: 0.03614
STLB TRANSLATION FROM L1D PREFETCHER ACCESS:    6614083  HIT:    6614021  MISS:         62  HIT %:    99.9991  MISS %: 0.000937394   MPKI: 0.00031
STLB PREFETCH  REQUESTED:          0  ISSUED:          0  USEFUL:       4277  USELESS:          0
STLB USEFUL LOAD PREFETCHES:       4277 PREFETCH ISSUED TO LOWER LEVEL:          0  ACCURACY: inf
STLB TIMELY PREFETCHES:       4277 LATE PREFETCHES: 1482 DROPPED PREFETCHES: 659336
STLB PREFETCHES SAME FILL-ORIGIN LEVEL: 0 DIFFERENT FILL-ORIGIN LEVEL: 0
STLB AVERAGE MISS LATENCY: 158.513 cycles
STLB RQ	ACCESS:   72789802	FORWARD:          0	MERGED:   60857885	TO_CACHE:   11931917

STLB Hit, L1D data hit: 0
STLB Hit, L2C data hit: 0
STLB Hit, LLC data hit: 0
STLB Hit, LLC data miss: 0
STLB STLB hints to L2: 0
L1D TOTAL     ACCESS:   51765163  HIT:   51298714  MISS:     466449  HIT %:    99.0989  MISS %:   0.901087   MPKI: 2.33224
L1D LOAD      ACCESS:   10877500  HIT:   10868219  MISS:       9281  HIT %:    99.9147  MISS %:  0.0853229   MPKI: 0.046405
L1D RFO       ACCESS:    4176534  HIT:    4176534  MISS:          0  HIT %:        100  MISS %:          0   MPKI: 0
L1D PREFETCH  ACCESS:   36711129  HIT:   36253961  MISS:     457168  HIT %:    98.7547  MISS %:    1.24531   MPKI: 2.28584
L1D PREFETCH  REQUESTED:  205332688  ISSUED:  205302613  USEFUL:     726231  USELESS:          6
L1D USEFUL LOAD PREFETCHES:     726231 PREFETCH ISSUED TO LOWER LEVEL:    2626985  ACCURACY: 27.645
L1D TIMELY PREFETCHES:     726231 LATE PREFETCHES: 7286 DROPPED PREFETCHES: 1954870
L1D PREFETCHES SAME FILL-ORIGIN LEVEL: 733513 DIFFERENT FILL-ORIGIN LEVEL: 1893472
L1D AVERAGE MISS LATENCY: 533.523 cycles
L1D RQ	ACCESS:   47119587	FORWARD:          0	MERGED:   29955014	TO_CACHE:   17164573
L1D WQ	ACCESS:    6669801	FORWARD:          0	MERGED:          0	TO_CACHE:    6669801
L1D PQ	ACCESS:  132524316	FORWARD:          0	MERGED:   59746019	TO_CACHE:   72778297

L1D UNIQUE REGIONS ACCESSED: 0
L1D REGIONS CONFLICTS: 0
L1D Cross Page Prefetch Requests: 16378777
L1D Same Page Prefetch Requests: 175412836
L1D ROI Sum of L1D PQ occupancy: 894049867
L1D PREFETCHES PUSHED FROM L2C: 0
L1I TOTAL     ACCESS:   43381431  HIT:   43381431  MISS:          0  HIT %:        100  MISS %:          0   MPKI: 0
L1I LOAD      ACCESS:   43381431  HIT:   43381431  MISS:          0  HIT %:        100  MISS %:          0   MPKI: 0
L1I PREFETCH  REQUESTED:          0  ISSUED:          0  USEFUL:          0  USELESS:          0
L1I USEFUL LOAD PREFETCHES:          0 PREFETCH ISSUED TO LOWER LEVEL:          0  ACCURACY: -nan
L1I TIMELY PREFETCHES:          0 LATE PREFETCHES: 0 DROPPED PREFETCHES: 0
L1I PREFETCHES SAME FILL-ORIGIN LEVEL: 0 DIFFERENT FILL-ORIGIN LEVEL: 0
L1I AVERAGE MISS LATENCY: -nan cycles
L1I RQ	ACCESS:   94824100	FORWARD:          0	MERGED:   26725301	TO_CACHE:   68098799

BTB TOTAL     ACCESS:   59705799  HIT:   59705799  MISS:          0  HIT %:        100  MISS %:          0   MPKI: 0
BTB BRANCH_DIRECT_JUMP	ACCESS:          0  HIT:          0  MISS:          0
BTB BRANCH_INDIRECT	ACCESS:          0  HIT:          0  MISS:          0
BTB BRANCH_CONDITIONAL	ACCESS:   59705799  HIT:   59705799  MISS:          0
BTB BRANCH_DIRECT_CALL	ACCESS:          0  HIT:          0  MISS:          0
BTB BRANCH_INDIRECT_CALL	ACCESS:          0  HIT:          0  MISS:          0
BTB BRANCH_RETURN	ACCESS:          0  HIT:          0  MISS:          0
BTB BRANCH_OTHER ACCESS:          0  HIT:          0  MISS:          0

L2C TOTAL     ACCESS:    2118533  HIT:    1594794  MISS:     523739  HIT %:    75.2782  MISS %:    24.7218   MPKI: 2.61869
L2C LOAD      ACCESS:       2727  HIT:          7  MISS:       2720  HIT %:   0.256692  MISS %:    99.7433   MPKI: 0.0136
L2C DATA LOAD MPKI: 0.0136
L2C INSTRUCTION LOAD MPKI: 0
L2C PREFETCH  ACCESS:     981257  HIT:     517520  MISS:     463737  HIT %:    52.7405  MISS %:    47.2595   MPKI: 2.31868
L2C DATA PREFETCH MPKI: 2.31868
L2C INSTRUCTION PREFETCH MPKI: 0
L2C WRITEBACK ACCESS:     466442  HIT:     410085  MISS:      56357  HIT %:    87.9177  MISS %:    12.0823   MPKI: 0.281785
L2C LOAD TRANSLATION ACCESS:       7228  HIT:       7227  MISS:          1  HIT %:    99.9862  MISS %:  0.0138351   MPKI: 5e-06
L2C TRANSLATION FROM L1D PREFETCHER ACCESS:     660879  HIT:     659955  MISS:        924  HIT %:    99.8602  MISS %:   0.139814   MPKI: 0.00462
L2C PREFETCH  REQUESTED:          0  ISSUED:          0  USEFUL:       1459  USELESS:     733631
L2C USEFUL LOAD PREFETCHES:       1459 PREFETCH ISSUED TO LOWER LEVEL:     733523  ACCURACY: 0.198903
L2C TIMELY PREFETCHES:       1459 LATE PREFETCHES: 0 DROPPED PREFETCHES: 0
L2C PREFETCHES SAME FILL-ORIGIN LEVEL: 117395 DIFFERENT FILL-ORIGIN LEVEL: 0
L2C AVERAGE MISS LATENCY: 541.737 cycles
L2C RQ	ACCESS:     675051	FORWARD:          0	MERGED:          0	TO_CACHE:     675051
L2C WQ	ACCESS:     736234	FORWARD:          0	MERGED:          0	TO_CACHE:     736234
L2C PQ	ACCESS:    2626985	FORWARD:          0	MERGED:       2571	TO_CACHE:    2624414

L2C Instructions Evicting Data 0
L2C Translations Evicting Data 1452
L2C Data Evicting Data 734942
L2C Instructions Evicting Instructions 0
L2C Translations Evicting Instructions 0
L2C Data Evicting Instructions 0
L2C Instructions Evicting Translations 0
L2C Translations Evicting Translations 0
L2C Data Evicting Translations 1299
L2C Dense regions hint from L2: 0
PSCL5 TOTAL     ACCESS:     668107  HIT:     668107  MISS:          0  HIT %:        100  MISS %:          0   MPKI: 0
PSCL5 LOAD TRANSLATION ACCESS:       7228  HIT:       7228  MISS:          0  HIT %:        100  MISS %:          0   MPKI: 0
PSCL5 TRANSLATION FROM L1D PREFETCHER ACCESS:     660879  HIT:     660879  MISS:          0  HIT %:        100  MISS %:          0   MPKI: 0
PSCL5 PREFETCH  REQUESTED:          0  ISSUED:          0  USEFUL:          0  USELESS:          0
PSCL5 USEFUL LOAD PREFETCHES:          0 PREFETCH ISSUED TO LOWER LEVEL:          0  ACCURACY: -nan
PSCL5 TIMELY PREFETCHES:          0 LATE PREFETCHES: 0 DROPPED PREFETCHES: 0
PSCL5 PREFETCHES SAME FILL-ORIGIN LEVEL: 0 DIFFERENT FILL-ORIGIN LEVEL: 0

PSCL4 TOTAL     ACCESS:     668107  HIT:     668107  MISS:          0  HIT %:        100  MISS %:          0   MPKI: 0
PSCL4 LOAD TRANSLATION ACCESS:       7228  HIT:       7228  MISS:          0  HIT %:        100  MISS %:          0   MPKI: 0
PSCL4 TRANSLATION FROM L1D PREFETCHER ACCESS:     660879  HIT:     660879  MISS:          0  HIT %:        100  MISS %:          0   MPKI: 0
PSCL4 PREFETCH  REQUESTED:          0  ISSUED:          0  USEFUL:          0  USELESS:          0
PSCL4 USEFUL LOAD PREFETCHES:          0 PREFETCH ISSUED TO LOWER LEVEL:          0  ACCURACY: -nan
PSCL4 TIMELY PREFETCHES:          0 LATE PREFETCHES: 0 DROPPED PREFETCHES: 0
PSCL4 PREFETCHES SAME FILL-ORIGIN LEVEL: 0 DIFFERENT FILL-ORIGIN LEVEL: 0

PSCL3 TOTAL     ACCESS:     668107  HIT:     668107  MISS:          0  HIT %:        100  MISS %:          0   MPKI: 0
PSCL3 LOAD TRANSLATION ACCESS:       7228  HIT:       7228  MISS:          0  HIT %:        100  MISS %:          0   MPKI: 0
PSCL3 TRANSLATION FROM L1D PREFETCHER ACCESS:     660879  HIT:     660879  MISS:          0  HIT %:        100  MISS %:          0   MPKI: 0
PSCL3 PREFETCH  REQUESTED:          0  ISSUED:          0  USEFUL:          0  USELESS:          0
PSCL3 USEFUL LOAD PREFETCHES:          0 PREFETCH ISSUED TO LOWER LEVEL:          0  ACCURACY: -nan
PSCL3 TIMELY PREFETCHES:          0 LATE PREFETCHES: 0 DROPPED PREFETCHES: 0
PSCL3 PREFETCHES SAME FILL-ORIGIN LEVEL: 0 DIFFERENT FILL-ORIGIN LEVEL: 0

PSCL2 TOTAL     ACCESS:     667034  HIT:     667020  MISS:         14  HIT %:    99.9979  MISS %: 0.00209884   MPKI: 7e-05
PSCL2 LOAD TRANSLATION ACCESS:       7228  HIT:       7214  MISS:         14  HIT %:    99.8063  MISS %:   0.193691   MPKI: 7e-05
PSCL2 TRANSLATION FROM L1D PREFETCHER ACCESS:     659806  HIT:     659806  MISS:          0  HIT %:        100  MISS %:          0   MPKI: 0
PSCL2 PREFETCH  REQUESTED:          0  ISSUED:          0  USEFUL:          0  USELESS:          0
PSCL2 USEFUL LOAD PREFETCHES:          0 PREFETCH ISSUED TO LOWER LEVEL:          0  ACCURACY: -nan
PSCL2 TIMELY PREFETCHES:          0 LATE PREFETCHES: 0 DROPPED PREFETCHES: 0
PSCL2 PREFETCHES SAME FILL-ORIGIN LEVEL: 0 DIFFERENT FILL-ORIGIN LEVEL: 0

LLC TOTAL     ACCESS:     933832  HIT:     406102  MISS:     527730  HIT %:    43.4877  MISS %:    56.5123   MPKI: 2.63865
LLC LOAD      ACCESS:       2720  HIT:          0  MISS:       2720  HIT %:          0  MISS %:        100   MPKI: 0.0136
LLC PREFETCH  ACCESS:     463737  HIT:          0  MISS:     463737  HIT %:          0  MISS %:        100   MPKI: 2.31868
LLC WRITEBACK ACCESS:     466450  HIT:     406102  MISS:      60348  HIT %:    87.0623  MISS %:    12.9377   MPKI: 0.30174
LLC LOAD TRANSLATION ACCESS:          1  HIT:          0  MISS:          1  HIT %:          0  MISS %:        100   MPKI: 5e-06
LLC TRANSLATION FROM L1D PREFETCHER ACCESS:        924  HIT:          0  MISS:        924  HIT %:          0  MISS %:        100   MPKI: 0.00462
LLC PREFETCH  REQUESTED:          0  ISSUED:          0  USEFUL:     410931  USELESS:    1711678
LLC USEFUL LOAD PREFETCHES:     410931 PREFETCH ISSUED TO LOWER LEVEL:    2139778  ACCURACY: 19.2044
LLC TIMELY PREFETCHES:     410931 LATE PREFETCHES: 0 DROPPED PREFETCHES: 0
LLC PREFETCHES SAME FILL-ORIGIN LEVEL: 0 DIFFERENT FILL-ORIGIN LEVEL: 0
LLC AVERAGE MISS LATENCY: 2473.62 cycles
LLC RQ	ACCESS:    2591041	FORWARD:          0	MERGED:          0	TO_CACHE:    2591040
LLC WQ	ACCESS:    3741431	FORWARD:          8	MERGED:          0	TO_CACHE:    3741431
LLC PQ	ACCESS:    3607699	FORWARD:          0	MERGED:          0	TO_CACHE:    3607692

LLC Dense regions hint to LLC: 0

RAW hits: 0
Loads Generated: 29852898
Loads sent to L1D: 29852897
Stores Generated: 4176535
Stores sent to L1D: 4176534
Major fault: 0 Minor fault: 9127
Allocated PAGES: 53374

DRAM Statistics
 CHANNEL 0
 RQ ROW_BUFFER_HIT:     801749  ROW_BUFFER_MISS:    2424672
 DBUS_CONGESTED:       1011
 WQ ROW_BUFFER_HIT:     549609  ROW_BUFFER_MISS:    2215083  FULL:       2065

 AVG_CONGESTED_CYCLE: 5
 All warmup complete: 5
Channel 0 Bank busy for read cycles: 0
Channel 0 Bank busy for write cycles: 0
Channel 0
Rank 0
0banks busy for read cycles: 465852
0banks busy for write cycles: 1785
1banks busy for read cycles: 28487273
1banks busy for write cycles: 634320
2banks busy for read cycles: 26741352
2banks busy for write cycles: 605010
3banks busy for read cycles: 17976302
3banks busy for write cycles: 619399
4banks busy for read cycles: 11848669
4banks busy for write cycles: 667765
5banks busy for read cycles: 9346440
5banks busy for write cycles: 755623
6banks busy for read cycles: 8904731
6banks busy for write cycles: 1218201
7banks busy for read cycles: 9329760
7banks busy for write cycles: 6625304
8banks busy for read cycles: 11363642
8banks busy for write cycles: 62508667

CPU 0 Branch Prediction Accuracy: 99.0544% MPKI: 0.956461 Average ROB Occupancy at Mispredict: 43.3439
Branch types
NOT_BRANCH: 179744232 89.8721%
BRANCH_DIRECT_JUMP: 1127 0.0005635%
BRANCH_INDIRECT: 0 0%
BRANCH_CONDITIONAL: 20251459 10.1257%
BRANCH_DIRECT_CALL: 1594 0.000797%
BRANCH_INDIRECT_CALL: 0 0%
BRANCH_RETURN: 1594 0.000797%
BRANCH_OTHER: 0 0%


CPU 1 Branch Prediction Accuracy: 99.6789% MPKI: 1.02521 Average ROB Occupancy at Mispredict: 26.8857
Branch types
NOT_BRANCH: 156128475 68.0706%
BRANCH_DIRECT_JUMP: 0 0%
BRANCH_INDIRECT: 0 0%
BRANCH_CONDITIONAL: 73234195 31.9294%
BRANCH_DIRECT_CALL: 0 0%
BRANCH_INDIRECT_CALL: 0 0%
BRANCH_RETURN: 0 0%
BRANCH_OTHER: 0 0%


CPU 2 Branch Prediction Accuracy: 99.4181% MPKI: 1.33191 Average ROB Occupancy at Mispredict: 33.1704
Branch types
NOT_BRANCH: 173511731 77.1095%
BRANCH_DIRECT_JUMP: 0 0%
BRANCH_INDIRECT: 0 0%
BRANCH_CONDITIONAL: 51508318 22.8905%
BRANCH_DIRECT_CALL: 0 0%
BRANCH_INDIRECT_CALL: 0 0%
BRANCH_RETURN: 0 0%
BRANCH_OTHER: 0 0%


CPU 3 Branch Prediction Accuracy: 99.6922% MPKI: 0.977408 Average ROB Occupancy at Mispredict: 76.146
Branch types
NOT_BRANCH: 215157585 68.0735%
BRANCH_DIRECT_JUMP: 0 0%
BRANCH_INDIRECT: 0 0%
BRANCH_CONDITIONAL: 100908989 31.9265%
BRANCH_DIRECT_CALL: 0 0%
BRANCH_INDIRECT_CALL: 0 0%
BRANCH_RETURN: 0 0%
BRANCH_OTHER: 0 0%

DRAM PAGES: 1048576
Allocated PAGES: 53374
