
*** ChampSim Multicore Out-of-Order Simulator ***

Warmup Instructions: 50000000
Simulation Instructions: 200000000
Number of CPUs: 4
LLC sets: 8192
LLC ways: 16
Off-chip DRAM Size: 4096 MB Channels: 1 Width: 64-bit Data Rate: 6400 MT/s
CPU 0 runs ./traces/gap/pr-3.trace.gz
.gz
CPU 1 runs ./traces/gap/pr-3.trace.gz
.gz
CPU 2 runs ./traces/gap/pr-3.trace.gz
.gz
CPU 3 runs ./traces/gap/pr-3.trace.gz
.gz
BTB has LRU replacement policy
ITLB has LRU replacement policy
DTLB has LRU replacement policy
STLB has LRU replacement policy
L1I has LRU replacement policy
History Sets: 8
History Ways: 16
BERTI Size: 16
BERTI Stride Size: 8
L1D has LRU replacement policy
Initialize SRRIP state for L2C
Initialize DRRIP state for LLC
BTB has LRU replacement policy
ITLB has LRU replacement policy
DTLB has LRU replacement policy
STLB has LRU replacement policy
L1I has LRU replacement policy
History Sets: 8
History Ways: 16
BERTI Size: 16
BERTI Stride Size: 8
L1D has LRU replacement policy
Initialize SRRIP state for L2C
Initialize DRRIP state for LLC
BTB has LRU replacement policy
ITLB has LRU replacement policy
DTLB has LRU replacement policy
STLB has LRU replacement policy
L1I has LRU replacement policy
History Sets: 8
History Ways: 16
BERTI Size: 16
BERTI Stride Size: 8
L1D has LRU replacement policy
Initialize SRRIP state for L2C
Initialize DRRIP state for LLC
BTB has LRU replacement policy
ITLB has LRU replacement policy
DTLB has LRU replacement policy
STLB has LRU replacement policy
L1I has LRU replacement policy
History Sets: 8
History Ways: 16
BERTI Size: 16
BERTI Stride Size: 8
L1D has LRU replacement policy
Initialize SRRIP state for L2C
Initialize DRRIP state for LLC
Heartbeat CPU 0 instructions: 10000002 cycles: 3333884 heartbeat IPC: 2.99951 cumulative IPC: 2.99951 (Simulation time: 0 hr 2 min 34 sec) 
Heartbeat CPU 1 instructions: 10000002 cycles: 3333909 heartbeat IPC: 2.99948 cumulative IPC: 2.99948 (Simulation time: 0 hr 2 min 34 sec) 
Heartbeat CPU 2 instructions: 10000002 cycles: 3333938 heartbeat IPC: 2.99946 cumulative IPC: 2.99946 (Simulation time: 0 hr 2 min 34 sec) 
Heartbeat CPU 3 instructions: 10000002 cycles: 3333944 heartbeat IPC: 2.99945 cumulative IPC: 2.99945 (Simulation time: 0 hr 2 min 34 sec) 
Heartbeat CPU 0 instructions: 20000002 cycles: 9832468 heartbeat IPC: 1.5388 cumulative IPC: 2.03408 (Simulation time: 0 hr 7 min 37 sec) 
Heartbeat CPU 1 instructions: 20000002 cycles: 9840493 heartbeat IPC: 1.5369 cumulative IPC: 2.03242 (Simulation time: 0 hr 7 min 38 sec) 
Heartbeat CPU 2 instructions: 20000002 cycles: 9867123 heartbeat IPC: 1.53065 cumulative IPC: 2.02693 (Simulation time: 0 hr 7 min 39 sec) 
Heartbeat CPU 3 instructions: 20000002 cycles: 9875506 heartbeat IPC: 1.52869 cumulative IPC: 2.02521 (Simulation time: 0 hr 7 min 40 sec) 
Heartbeat CPU 0 instructions: 30000001 cycles: 16935634 heartbeat IPC: 1.40782 cumulative IPC: 1.77141 (Simulation time: 0 hr 13 min 4 sec) 
Heartbeat CPU 1 instructions: 30000001 cycles: 16950545 heartbeat IPC: 1.40646 cumulative IPC: 1.76985 (Simulation time: 0 hr 13 min 5 sec) 
Heartbeat CPU 2 instructions: 30000001 cycles: 16998450 heartbeat IPC: 1.40226 cumulative IPC: 1.76487 (Simulation time: 0 hr 13 min 7 sec) 
Heartbeat CPU 3 instructions: 30000001 cycles: 17014547 heartbeat IPC: 1.40075 cumulative IPC: 1.7632 (Simulation time: 0 hr 13 min 8 sec) 
Heartbeat CPU 0 instructions: 40000000 cycles: 23994332 heartbeat IPC: 1.41669 cumulative IPC: 1.66706 (Simulation time: 0 hr 18 min 30 sec) 
Heartbeat CPU 1 instructions: 40000000 cycles: 24016379 heartbeat IPC: 1.41526 cumulative IPC: 1.66553 (Simulation time: 0 hr 18 min 31 sec) 
Heartbeat CPU 2 instructions: 40000000 cycles: 24088680 heartbeat IPC: 1.41039 cumulative IPC: 1.66053 (Simulation time: 0 hr 18 min 34 sec) 
Heartbeat CPU 3 instructions: 40000000 cycles: 24114450 heartbeat IPC: 1.40847 cumulative IPC: 1.65876 (Simulation time: 0 hr 18 min 35 sec) 
Heartbeat CPU 0 instructions: 50000000 cycles: 31030834 heartbeat IPC: 1.42116 cumulative IPC: 1.6113 (Simulation time: 0 hr 23 min 21 sec) 
Heartbeat CPU 1 instructions: 50000000 cycles: 31060038 heartbeat IPC: 1.41972 cumulative IPC: 1.60979 (Simulation time: 0 hr 23 min 22 sec) 
Heartbeat CPU 2 instructions: 50000000 cycles: 31160770 heartbeat IPC: 1.41401 cumulative IPC: 1.60458 (Simulation time: 0 hr 23 min 26 sec) 
Heartbeat CPU 3 instructions: 50000000 cycles: 31195673 heartbeat IPC: 1.41219 cumulative IPC: 1.60279 (Simulation time: 0 hr 23 min 28 sec) 

Warmup complete CPU 0 instructions: 50233305 cycles: 31195674 (Simulation time: 0 hr 23 min 28 sec) 
Warmup complete CPU 1 instructions: 50192054 cycles: 31195674 (Simulation time: 0 hr 23 min 28 sec) 
Warmup complete CPU 2 instructions: 50050515 cycles: 31195674 (Simulation time: 0 hr 23 min 28 sec) 
Warmup complete CPU 3 instructions: 50000001 cycles: 31195674 (Simulation time: 0 hr 23 min 28 sec) 

Heartbeat CPU 1 instructions: 60000003 cycles: 190419586 heartbeat IPC: 0.0627512 cumulative IPC: 0.0615985 (Simulation time: 0 hr 39 min 11 sec) 
Heartbeat CPU 3 instructions: 60000003 cycles: 192294301 heartbeat IPC: 0.0620738 cumulative IPC: 0.0620738 (Simulation time: 0 hr 39 min 24 sec) 
Heartbeat CPU 2 instructions: 60000003 cycles: 192836368 heartbeat IPC: 0.0618523 cumulative IPC: 0.0615531 (Simulation time: 0 hr 39 min 28 sec) 
Heartbeat CPU 0 instructions: 60000003 cycles: 192946822 heartbeat IPC: 0.0617604 cumulative IPC: 0.060381 (Simulation time: 0 hr 39 min 29 sec) 
Heartbeat CPU 1 instructions: 70000001 cycles: 352557059 heartbeat IPC: 0.061676 cumulative IPC: 0.0616376 (Simulation time: 0 hr 55 min 0 sec) 
Heartbeat CPU 3 instructions: 70000001 cycles: 357137014 heartbeat IPC: 0.0606639 cumulative IPC: 0.0613607 (Simulation time: 0 hr 55 min 24 sec) 
Heartbeat CPU 2 instructions: 70000001 cycles: 357468609 heartbeat IPC: 0.0607414 cumulative IPC: 0.0611436 (Simulation time: 0 hr 55 min 25 sec) 
Heartbeat CPU 0 instructions: 70000001 cycles: 358136432 heartbeat IPC: 0.0605365 cumulative IPC: 0.0604596 (Simulation time: 0 hr 55 min 29 sec) 
Heartbeat CPU 1 instructions: 80000003 cycles: 516003798 heartbeat IPC: 0.061182 cumulative IPC: 0.061484 (Simulation time: 1 hr 10 min 26 sec) 
Heartbeat CPU 3 instructions: 80000003 cycles: 521899012 heartbeat IPC: 0.0606936 cumulative IPC: 0.0611367 (Simulation time: 1 hr 11 min 7 sec) 
Heartbeat CPU 2 instructions: 80000003 cycles: 522268322 heartbeat IPC: 0.0606797 cumulative IPC: 0.0609879 (Simulation time: 1 hr 11 min 9 sec) 
Heartbeat CPU 0 instructions: 80000003 cycles: 523337658 heartbeat IPC: 0.0605322 cumulative IPC: 0.060484 (Simulation time: 1 hr 11 min 16 sec) 
Heartbeat CPU 1 instructions: 90000000 cycles: 678425435 heartbeat IPC: 0.0615681 cumulative IPC: 0.0615051 (Simulation time: 1 hr 27 min 8 sec) 
Heartbeat CPU 3 instructions: 90000000 cycles: 686347593 heartbeat IPC: 0.0608093 cumulative IPC: 0.0610545 (Simulation time: 1 hr 27 min 57 sec) 
Heartbeat CPU 2 instructions: 90000000 cycles: 686942324 heartbeat IPC: 0.060726 cumulative IPC: 0.0609221 (Simulation time: 1 hr 28 min 1 sec) 
Heartbeat CPU 0 instructions: 90000000 cycles: 688159606 heartbeat IPC: 0.0606715 cumulative IPC: 0.060531 (Simulation time: 1 hr 28 min 10 sec) 
Heartbeat CPU 1 instructions: 100000002 cycles: 841505318 heartbeat IPC: 0.0613197 cumulative IPC: 0.0614678 (Simulation time: 1 hr 42 min 44 sec) 
Heartbeat CPU 3 instructions: 100000002 cycles: 850960158 heartbeat IPC: 0.0607487 cumulative IPC: 0.0609931 (Simulation time: 1 hr 43 min 36 sec) 
Heartbeat CPU 2 instructions: 100000002 cycles: 851793028 heartbeat IPC: 0.060661 cumulative IPC: 0.0608697 (Simulation time: 1 hr 43 min 41 sec) 
Heartbeat CPU 0 instructions: 100000002 cycles: 854509486 heartbeat IPC: 0.0601143 cumulative IPC: 0.0604468 (Simulation time: 1 hr 43 min 56 sec) 
Heartbeat CPU 1 instructions: 110000000 cycles: 1004231510 heartbeat IPC: 0.0614529 cumulative IPC: 0.0614653 (Simulation time: 1 hr 59 min 51 sec) 
Heartbeat CPU 3 instructions: 110000000 cycles: 1015246047 heartbeat IPC: 0.0608695 cumulative IPC: 0.0609725 (Simulation time: 2 hr 1 min 7 sec) 
Heartbeat CPU 2 instructions: 110000000 cycles: 1015609525 heartbeat IPC: 0.0610439 cumulative IPC: 0.0608987 (Simulation time: 2 hr 1 min 10 sec) 
Heartbeat CPU 0 instructions: 110000000 cycles: 1019845066 heartbeat IPC: 0.060483 cumulative IPC: 0.0604529 (Simulation time: 2 hr 1 min 39 sec) 
Heartbeat CPU 1 instructions: 120000001 cycles: 1165571579 heartbeat IPC: 0.0619809 cumulative IPC: 0.0615386 (Simulation time: 2 hr 16 min 57 sec) 
Heartbeat CPU 3 instructions: 120000001 cycles: 1180664463 heartbeat IPC: 0.0604528 cumulative IPC: 0.0608977 (Simulation time: 2 hr 18 min 21 sec) 
Heartbeat CPU 2 instructions: 120000001 cycles: 1181031140 heartbeat IPC: 0.0604516 cumulative IPC: 0.0608343 (Simulation time: 2 hr 18 min 23 sec) 
Heartbeat CPU 0 instructions: 120000001 cycles: 1186392773 heartbeat IPC: 0.0600429 cumulative IPC: 0.0603938 (Simulation time: 2 hr 18 min 59 sec) 
Heartbeat CPU 1 instructions: 130000001 cycles: 1326923096 heartbeat IPC: 0.0619765 cumulative IPC: 0.0615932 (Simulation time: 2 hr 33 min 49 sec) 
Heartbeat CPU 3 instructions: 130000001 cycles: 1345120386 heartbeat IPC: 0.0608066 cumulative IPC: 0.0608863 (Simulation time: 2 hr 35 min 47 sec) 
Heartbeat CPU 2 instructions: 130000001 cycles: 1345496529 heartbeat IPC: 0.0608031 cumulative IPC: 0.0608304 (Simulation time: 2 hr 35 min 50 sec) 
Heartbeat CPU 0 instructions: 130000001 cycles: 1352551507 heartbeat IPC: 0.0601834 cumulative IPC: 0.0603673 (Simulation time: 2 hr 36 min 32 sec) 
Heartbeat CPU 1 instructions: 140000002 cycles: 1491243905 heartbeat IPC: 0.0608566 cumulative IPC: 0.0615103 (Simulation time: 2 hr 50 min 22 sec) 
Heartbeat CPU 2 instructions: 140000002 cycles: 1509919290 heartbeat IPC: 0.0608188 cumulative IPC: 0.0608291 (Simulation time: 2 hr 52 min 32 sec) 
Heartbeat CPU 3 instructions: 140000002 cycles: 1509960175 heartbeat IPC: 0.060665 cumulative IPC: 0.0608616 (Simulation time: 2 hr 52 min 33 sec) 
Heartbeat CPU 0 instructions: 140000002 cycles: 1519829658 heartbeat IPC: 0.0597807 cumulative IPC: 0.0603014 (Simulation time: 2 hr 53 min 40 sec) 
Heartbeat CPU 1 instructions: 150000000 cycles: 1653432726 heartbeat IPC: 0.0616565 cumulative IPC: 0.0615249 (Simulation time: 3 hr 8 min 25 sec) 
Heartbeat CPU 3 instructions: 150000000 cycles: 1673288915 heartbeat IPC: 0.0612262 cumulative IPC: 0.0608979 (Simulation time: 3 hr 10 min 16 sec) 
Heartbeat CPU 2 instructions: 150000000 cycles: 1674186159 heartbeat IPC: 0.0608765 cumulative IPC: 0.0608339 (Simulation time: 3 hr 10 min 22 sec) 
Heartbeat CPU 0 instructions: 150000000 cycles: 1684506446 heartbeat IPC: 0.060725 cumulative IPC: 0.0603436 (Simulation time: 3 hr 11 min 32 sec) 
Heartbeat CPU 1 instructions: 160000002 cycles: 1815068630 heartbeat IPC: 0.0618675 cumulative IPC: 0.0615559 (Simulation time: 3 hr 24 min 26 sec) 
Heartbeat CPU 3 instructions: 160000002 cycles: 1836406038 heartbeat IPC: 0.0613057 cumulative IPC: 0.0609347 (Simulation time: 3 hr 26 min 50 sec) 
Heartbeat CPU 2 instructions: 160000002 cycles: 1837322013 heartbeat IPC: 0.0612986 cumulative IPC: 0.0608759 (Simulation time: 3 hr 26 min 55 sec) 
Heartbeat CPU 0 instructions: 160000002 cycles: 1850169617 heartbeat IPC: 0.0603635 cumulative IPC: 0.0603454 (Simulation time: 3 hr 28 min 18 sec) 
Heartbeat CPU 1 instructions: 170000003 cycles: 1975419564 heartbeat IPC: 0.0623632 cumulative IPC: 0.0616225 (Simulation time: 3 hr 41 min 19 sec) 
Heartbeat CPU 3 instructions: 170000003 cycles: 1999333550 heartbeat IPC: 0.061377 cumulative IPC: 0.0609713 (Simulation time: 3 hr 43 min 50 sec) 
Heartbeat CPU 2 instructions: 170000003 cycles: 2001166757 heartbeat IPC: 0.0610334 cumulative IPC: 0.060889 (Simulation time: 3 hr 43 min 59 sec) 
Heartbeat CPU 0 instructions: 170000003 cycles: 2017445912 heartbeat IPC: 0.0597813 cumulative IPC: 0.0602979 (Simulation time: 3 hr 45 min 25 sec) 
Heartbeat CPU 1 instructions: 180000002 cycles: 2138148127 heartbeat IPC: 0.061452 cumulative IPC: 0.0616093 (Simulation time: 3 hr 57 min 4 sec) 
Heartbeat CPU 3 instructions: 180000002 cycles: 2162292764 heartbeat IPC: 0.061365 cumulative IPC: 0.0610014 (Simulation time: 3 hr 59 min 8 sec) 
Heartbeat CPU 2 instructions: 180000002 cycles: 2164247224 heartbeat IPC: 0.0613194 cumulative IPC: 0.0609219 (Simulation time: 3 hr 59 min 18 sec) 
Heartbeat CPU 0 instructions: 180000002 cycles: 2181397724 heartbeat IPC: 0.0609935 cumulative IPC: 0.0603509 (Simulation time: 4 hr 0 min 47 sec) 
Heartbeat CPU 1 instructions: 190000000 cycles: 2254565492 heartbeat IPC: 0.0858978 cumulative IPC: 0.0628811 (Simulation time: 4 hr 7 min 53 sec) 
Heartbeat CPU 3 instructions: 190000000 cycles: 2285334648 heartbeat IPC: 0.0812731 cumulative IPC: 0.062108 (Simulation time: 4 hr 11 min 29 sec) 
Heartbeat CPU 2 instructions: 190000001 cycles: 2288515718 heartbeat IPC: 0.0804709 cumulative IPC: 0.0619981 (Simulation time: 4 hr 12 min 13 sec) 
Heartbeat CPU 1 instructions: 200000001 cycles: 2297788560 heartbeat IPC: 0.231358 cumulative IPC: 0.0660939 (Simulation time: 4 hr 13 min 47 sec) 
Heartbeat CPU 0 instructions: 190000001 cycles: 2316837588 heartbeat IPC: 0.0738335 cumulative IPC: 0.0611499 (Simulation time: 4 hr 15 min 49 sec) 
Heartbeat CPU 3 instructions: 200000001 cycles: 2327927591 heartbeat IPC: 0.234781 cumulative IPC: 0.0653102 (Simulation time: 4 hr 17 min 19 sec) 
Heartbeat CPU 2 instructions: 200000001 cycles: 2328314245 heartbeat IPC: 0.251266 cumulative IPC: 0.0652772 (Simulation time: 4 hr 17 min 20 sec) 
Heartbeat CPU 0 instructions: 200000001 cycles: 2351051162 heartbeat IPC: 0.292282 cumulative IPC: 0.0645586 (Simulation time: 4 hr 19 min 12 sec) 
Heartbeat CPU 1 instructions: 210000003 cycles: 2465616572 heartbeat IPC: 0.0595848 cumulative IPC: 0.0656452 (Simulation time: 4 hr 30 min 19 sec) 
Heartbeat CPU 3 instructions: 210000003 cycles: 2491546342 heartbeat IPC: 0.0611177 cumulative IPC: 0.0650314 (Simulation time: 4 hr 32 min 57 sec) 
Heartbeat CPU 2 instructions: 210000003 cycles: 2491854263 heartbeat IPC: 0.0611471 cumulative IPC: 0.0650027 (Simulation time: 4 hr 32 min 58 sec) 
Heartbeat CPU 0 instructions: 210000003 cycles: 2517072195 heartbeat IPC: 0.0602333 cumulative IPC: 0.0642698 (Simulation time: 4 hr 35 min 7 sec) 
Heartbeat CPU 1 instructions: 220000000 cycles: 2627387710 heartbeat IPC: 0.0618157 cumulative IPC: 0.0654065 (Simulation time: 4 hr 44 min 46 sec) 
Heartbeat CPU 3 instructions: 220000000 cycles: 2656045164 heartbeat IPC: 0.0607907 cumulative IPC: 0.0647656 (Simulation time: 4 hr 47 min 54 sec) 
Heartbeat CPU 2 instructions: 220000000 cycles: 2656174196 heartbeat IPC: 0.0608569 cumulative IPC: 0.0647432 (Simulation time: 4 hr 47 min 55 sec) 
Heartbeat CPU 0 instructions: 220000000 cycles: 2684182386 heartbeat IPC: 0.0598407 cumulative IPC: 0.0639908 (Simulation time: 4 hr 50 min 45 sec) 
Heartbeat CPU 1 instructions: 230000000 cycles: 2790930828 heartbeat IPC: 0.061146 cumulative IPC: 0.0651541 (Simulation time: 5 hr 2 min 5 sec) 
Heartbeat CPU 3 instructions: 230000000 cycles: 2819176803 heartbeat IPC: 0.0613002 cumulative IPC: 0.0645628 (Simulation time: 5 hr 5 min 10 sec) 
Heartbeat CPU 2 instructions: 230000000 cycles: 2819702201 heartbeat IPC: 0.0611516 cumulative IPC: 0.0645326 (Simulation time: 5 hr 5 min 14 sec) 
Heartbeat CPU 0 instructions: 230000000 cycles: 2847684022 heartbeat IPC: 0.0611615 cumulative IPC: 0.0638265 (Simulation time: 5 hr 8 min 15 sec) 
Heartbeat CPU 1 instructions: 240000003 cycles: 2953097444 heartbeat IPC: 0.061665 cumulative IPC: 0.0649604 (Simulation time: 5 hr 19 min 3 sec) 
Heartbeat CPU 3 instructions: 240000003 cycles: 2985240409 heartbeat IPC: 0.0602179 cumulative IPC: 0.0643186 (Simulation time: 5 hr 22 min 4 sec) 
Heartbeat CPU 2 instructions: 240000003 cycles: 2986131678 heartbeat IPC: 0.0600855 cumulative IPC: 0.0642821 (Simulation time: 5 hr 22 min 10 sec) 
Heartbeat CPU 0 instructions: 240000003 cycles: 3019176913 heartbeat IPC: 0.0583115 cumulative IPC: 0.06351 (Simulation time: 5 hr 25 min 46 sec) 
Heartbeat CPU 1 instructions: 250000001 cycles: 3112335744 heartbeat IPC: 0.0627989 cumulative IPC: 0.0648487 (Simulation time: 5 hr 35 min 20 sec) 
Finished CPU 1 instructions: 200000000 cycles: 3084274433 cumulative IPC: 0.0648451 (Simulation time: 5 hr 35 min 39 sec) 
Heartbeat CPU 2 instructions: 250000001 cycles: 3146633455 heartbeat IPC: 0.0623046 cumulative IPC: 0.0641802 (Simulation time: 5 hr 38 min 49 sec) 
Heartbeat CPU 3 instructions: 250000001 cycles: 3146713613 heartbeat IPC: 0.0619298 cumulative IPC: 0.0641948 (Simulation time: 5 hr 38 min 50 sec) 
Finished CPU 3 instructions: 200000000 cycles: 3115517939 cumulative IPC: 0.0641948 (Simulation time: 5 hr 38 min 50 sec) 
Finished CPU 2 instructions: 200000001 cycles: 3116274754 cumulative IPC: 0.0641792 (Simulation time: 5 hr 38 min 55 sec) 
Heartbeat CPU 0 instructions: 250000001 cycles: 3178462868 heartbeat IPC: 0.0627802 cumulative IPC: 0.0634731 (Simulation time: 5 hr 42 min 16 sec) 
Finished CPU 0 instructions: 200000003 cycles: 3151401578 cumulative IPC: 0.0634638 (Simulation time: 5 hr 42 min 42 sec) 

ChampSim completed all CPUs

Total Simulation Statistics (not including warmup)

CPU 0 cumulative IPC: 0.0634638 instructions: 200000003 cycles: 3151401578
ITLB TOTAL     ACCESS:   59888588  HIT:   59888588  MISS:          0  HIT %:        100  MISS %:          0   MPKI: 0
ITLB LOAD      ACCESS:          0  HIT:          0  MISS:          0  HIT %:       -nan  MISS %:       -nan   MPKI: 0
ITLB RFO       ACCESS:          0  HIT:          0  MISS:          0  HIT %:       -nan  MISS %:       -nan   MPKI: 0
ITLB PREFETCH  ACCESS:          0  HIT:          0  MISS:          0  HIT %:       -nan  MISS %:       -nan   MPKI: 0
ITLB WRITEBACK ACCESS:          0  HIT:          0  MISS:          0  HIT %:       -nan  MISS %:       -nan   MPKI: 0
DTLB TOTAL     ACCESS:   67542568  HIT:   44654780  MISS:   22887788  HIT %:    66.1135  MISS %:    33.8865   MPKI: 114.439
DTLB LOAD      ACCESS:          0  HIT:          0  MISS:          0  HIT %:       -nan  MISS %:       -nan   MPKI: 0
DTLB RFO       ACCESS:          0  HIT:          0  MISS:          0  HIT %:       -nan  MISS %:       -nan   MPKI: 0
DTLB PREFETCH  ACCESS:          0  HIT:          0  MISS:          0  HIT %:       -nan  MISS %:       -nan   MPKI: 0
DTLB WRITEBACK ACCESS:          0  HIT:          0  MISS:          0  HIT %:       -nan  MISS %:       -nan   MPKI: 0
STLB TOTAL     ACCESS:   49693110  HIT:   49652245  MISS:      40865  HIT %:    99.9178  MISS %:  0.0822347   MPKI: 0.204325
STLB LOAD      ACCESS:          0  HIT:          0  MISS:          0  HIT %:       -nan  MISS %:       -nan   MPKI: 0
STLB RFO       ACCESS:          0  HIT:          0  MISS:          0  HIT %:       -nan  MISS %:       -nan   MPKI: 0
STLB PREFETCH  ACCESS:          0  HIT:          0  MISS:          0  HIT %:       -nan  MISS %:       -nan   MPKI: 0
STLB WRITEBACK ACCESS:          0  HIT:          0  MISS:          0  HIT %:       -nan  MISS %:       -nan   MPKI: 0
L1D TOTAL     ACCESS:  207020893  HIT:  172421378  MISS:   34599515  HIT %:    83.2869  MISS %:    16.7131   MPKI: 172.998
L1D LOAD      ACCESS:   64939982  HIT:   32962013  MISS:   31977969  HIT %:    50.7577  MISS %:    49.2423   MPKI: 159.89
L1D RFO       ACCESS:    2452468  HIT:    2386910  MISS:      65558  HIT %:    97.3269  MISS %:    2.67314   MPKI: 0.32779
L1D PREFETCH  ACCESS:  139628443  HIT:  137072455  MISS:    2555988  HIT %:    98.1694  MISS %:    1.83056   MPKI: 12.7799
L1D WRITEBACK ACCESS:          0  HIT:          0  MISS:          0  HIT %:       -nan  MISS %:       -nan   MPKI: 0
L1I TOTAL     ACCESS:   61014012  HIT:   61013989  MISS:         23  HIT %:        100  MISS %: 3.76963e-05   MPKI: 0.000115
L1I LOAD      ACCESS:   61014012  HIT:   61013989  MISS:         23  HIT %:        100  MISS %: 3.76963e-05   MPKI: 0.000115
L1I RFO       ACCESS:          0  HIT:          0  MISS:          0  HIT %:       -nan  MISS %:       -nan   MPKI: 0
L1I PREFETCH  ACCESS:          0  HIT:          0  MISS:          0  HIT %:       -nan  MISS %:       -nan   MPKI: 0
L1I WRITEBACK ACCESS:          0  HIT:          0  MISS:          0  HIT %:       -nan  MISS %:       -nan   MPKI: 0
L2C TOTAL     ACCESS:   52578930  HIT:   25476444  MISS:   27102486  HIT %:    48.4537  MISS %:    51.5463   MPKI: 135.512
L2C LOAD      ACCESS:   31956692  HIT:    9298879  MISS:   22657813  HIT %:    29.0984  MISS %:    70.9016   MPKI: 113.289
L2C RFO       ACCESS:      65558  HIT:        152  MISS:      65406  HIT %:   0.231856  MISS %:    99.7681   MPKI: 0.32703
L2C PREFETCH  ACCESS:   18715483  HIT:   14371510  MISS:    4343973  HIT %:    76.7894  MISS %:    23.2106   MPKI: 21.7199
L2C WRITEBACK ACCESS:     149981  HIT:     122249  MISS:      27732  HIT %:    81.5097  MISS %:    18.4903   MPKI: 0.13866
PSCL5 TOTAL     ACCESS:    1691133  HIT:    1691133  MISS:          0  HIT %:        100  MISS %:          0   MPKI: 0
PSCL5 LOAD      ACCESS:          0  HIT:          0  MISS:          0  HIT %:       -nan  MISS %:       -nan   MPKI: 0
PSCL5 RFO       ACCESS:          0  HIT:          0  MISS:          0  HIT %:       -nan  MISS %:       -nan   MPKI: 0
PSCL5 PREFETCH  ACCESS:          0  HIT:          0  MISS:          0  HIT %:       -nan  MISS %:       -nan   MPKI: 0
PSCL5 WRITEBACK ACCESS:          0  HIT:          0  MISS:          0  HIT %:       -nan  MISS %:       -nan   MPKI: 0
PSCL4 TOTAL     ACCESS:    1691133  HIT:    1691133  MISS:          0  HIT %:        100  MISS %:          0   MPKI: 0
PSCL4 LOAD      ACCESS:          0  HIT:          0  MISS:          0  HIT %:       -nan  MISS %:       -nan   MPKI: 0
PSCL4 RFO       ACCESS:          0  HIT:          0  MISS:          0  HIT %:       -nan  MISS %:       -nan   MPKI: 0
PSCL4 PREFETCH  ACCESS:          0  HIT:          0  MISS:          0  HIT %:       -nan  MISS %:       -nan   MPKI: 0
PSCL4 WRITEBACK ACCESS:          0  HIT:          0  MISS:          0  HIT %:       -nan  MISS %:       -nan   MPKI: 0
PSCL3 TOTAL     ACCESS:    1691133  HIT:    1691133  MISS:          0  HIT %:        100  MISS %:          0   MPKI: 0
PSCL3 LOAD      ACCESS:          0  HIT:          0  MISS:          0  HIT %:       -nan  MISS %:       -nan   MPKI: 0
PSCL3 RFO       ACCESS:          0  HIT:          0  MISS:          0  HIT %:       -nan  MISS %:       -nan   MPKI: 0
PSCL3 PREFETCH  ACCESS:          0  HIT:          0  MISS:          0  HIT %:       -nan  MISS %:       -nan   MPKI: 0
PSCL3 WRITEBACK ACCESS:          0  HIT:          0  MISS:          0  HIT %:       -nan  MISS %:       -nan   MPKI: 0
PSCL2 TOTAL     ACCESS:    1688093  HIT:    1688009  MISS:         84  HIT %:     99.995  MISS %: 0.00497603   MPKI: 0.00042
PSCL2 LOAD      ACCESS:          0  HIT:          0  MISS:          0  HIT %:       -nan  MISS %:       -nan   MPKI: 0
PSCL2 RFO       ACCESS:          0  HIT:          0  MISS:          0  HIT %:       -nan  MISS %:       -nan   MPKI: 0
PSCL2 PREFETCH  ACCESS:          0  HIT:          0  MISS:          0  HIT %:       -nan  MISS %:       -nan   MPKI: 0
PSCL2 WRITEBACK ACCESS:          0  HIT:          0  MISS:          0  HIT %:       -nan  MISS %:       -nan   MPKI: 0
LLC TOTAL     ACCESS:   27212262  HIT:   15979841  MISS:   11232421  HIT %:    58.7229  MISS %:    41.2771   MPKI: 56.1621
LLC LOAD      ACCESS:   22581728  HIT:   15181553  MISS:    7400175  HIT %:    67.2294  MISS %:    32.7706   MPKI: 37.0009
LLC RFO       ACCESS:      65406  HIT:       9275  MISS:      56131  HIT %:    14.1807  MISS %:    85.8193   MPKI: 0.280655
LLC PREFETCH  ACCESS:    4420058  HIT:     659092  MISS:    3760966  HIT %:    14.9114  MISS %:    85.0886   MPKI: 18.8048
LLC WRITEBACK ACCESS:     137508  HIT:     127841  MISS:       9667  HIT %:    92.9699  MISS %:    7.03014   MPKI: 0.048335

RAW hits: 24
Loads Generated: 77353252
Loads sent to L1D: 77353227
Stores Generated: 3300799
Stores sent to L1D: 3300799

CPU 1 cumulative IPC: 0.0647779 instructions: 204141011 cycles: 3151401578
ITLB TOTAL     ACCESS:   61171221  HIT:   61171221  MISS:          0  HIT %:        100  MISS %:          0   MPKI: 0
ITLB LOAD      ACCESS:          0  HIT:          0  MISS:          0  HIT %:       -nan  MISS %:       -nan   MPKI: 0
ITLB RFO       ACCESS:          0  HIT:          0  MISS:          0  HIT %:       -nan  MISS %:       -nan   MPKI: 0
ITLB PREFETCH  ACCESS:          0  HIT:          0  MISS:          0  HIT %:       -nan  MISS %:       -nan   MPKI: 0
ITLB WRITEBACK ACCESS:          0  HIT:          0  MISS:          0  HIT %:       -nan  MISS %:       -nan   MPKI: 0
DTLB TOTAL     ACCESS:   68944971  HIT:   45565620  MISS:   23379351  HIT %:    66.0898  MISS %:    33.9102   MPKI: 114.525
DTLB LOAD      ACCESS:          0  HIT:          0  MISS:          0  HIT %:       -nan  MISS %:       -nan   MPKI: 0
DTLB RFO       ACCESS:          0  HIT:          0  MISS:          0  HIT %:       -nan  MISS %:       -nan   MPKI: 0
DTLB PREFETCH  ACCESS:          0  HIT:          0  MISS:          0  HIT %:       -nan  MISS %:       -nan   MPKI: 0
DTLB WRITEBACK ACCESS:          0  HIT:          0  MISS:          0  HIT %:       -nan  MISS %:       -nan   MPKI: 0
STLB TOTAL     ACCESS:   50715920  HIT:   50674259  MISS:      41661  HIT %:    99.9179  MISS %:  0.0821458   MPKI: 0.20408
STLB LOAD      ACCESS:          0  HIT:          0  MISS:          0  HIT %:       -nan  MISS %:       -nan   MPKI: 0
STLB RFO       ACCESS:          0  HIT:          0  MISS:          0  HIT %:       -nan  MISS %:       -nan   MPKI: 0
STLB PREFETCH  ACCESS:          0  HIT:          0  MISS:          0  HIT %:       -nan  MISS %:       -nan   MPKI: 0
STLB WRITEBACK ACCESS:          0  HIT:          0  MISS:          0  HIT %:       -nan  MISS %:       -nan   MPKI: 0
L1D TOTAL     ACCESS:  210712603  HIT:  175356471  MISS:   35356132  HIT %:    83.2207  MISS %:    16.7793   MPKI: 173.195
L1D LOAD      ACCESS:   66281317  HIT:   33579478  MISS:   32701839  HIT %:    50.6621  MISS %:    49.3379   MPKI: 160.192
L1D RFO       ACCESS:    2512881  HIT:    2447322  MISS:      65559  HIT %:    97.3911  MISS %:    2.60892   MPKI: 0.321146
L1D PREFETCH  ACCESS:  141918405  HIT:  139329671  MISS:    2588734  HIT %:    98.1759  MISS %:     1.8241   MPKI: 12.6811
L1D WRITEBACK ACCESS:          0  HIT:          0  MISS:          0  HIT %:       -nan  MISS %:       -nan   MPKI: 0
L1I TOTAL     ACCESS:   62320824  HIT:   62320801  MISS:         23  HIT %:        100  MISS %: 3.69058e-05   MPKI: 0.000112667
L1I LOAD      ACCESS:   62320824  HIT:   62320801  MISS:         23  HIT %:        100  MISS %: 3.69058e-05   MPKI: 0.000112667
L1I RFO       ACCESS:          0  HIT:          0  MISS:          0  HIT %:       -nan  MISS %:       -nan   MPKI: 0
L1I PREFETCH  ACCESS:          0  HIT:          0  MISS:          0  HIT %:       -nan  MISS %:       -nan   MPKI: 0
L1I WRITEBACK ACCESS:          0  HIT:          0  MISS:          0  HIT %:       -nan  MISS %:       -nan   MPKI: 0
L2C TOTAL     ACCESS:   53663323  HIT:   25980545  MISS:   27682778  HIT %:     48.414  MISS %:     51.586   MPKI: 135.606
L2C LOAD      ACCESS:   32680264  HIT:    9563173  MISS:   23117091  HIT %:    29.2628  MISS %:    70.7372   MPKI: 113.241
L2C RFO       ACCESS:      65559  HIT:        166  MISS:      65393  HIT %:   0.253207  MISS %:    99.7468   MPKI: 0.320332
L2C PREFETCH  ACCESS:   19073693  HIT:   14609060  MISS:    4464633  HIT %:    76.5927  MISS %:    23.4073   MPKI: 21.8703
L2C WRITEBACK ACCESS:     151782  HIT:     123848  MISS:      27934  HIT %:     81.596  MISS %:     18.404   MPKI: 0.136837
PSCL5 TOTAL     ACCESS:    1691932  HIT:    1691932  MISS:          0  HIT %:        100  MISS %:          0   MPKI: 0
PSCL5 LOAD      ACCESS:          0  HIT:          0  MISS:          0  HIT %:       -nan  MISS %:       -nan   MPKI: 0
PSCL5 RFO       ACCESS:          0  HIT:          0  MISS:          0  HIT %:       -nan  MISS %:       -nan   MPKI: 0
PSCL5 PREFETCH  ACCESS:          0  HIT:          0  MISS:          0  HIT %:       -nan  MISS %:       -nan   MPKI: 0
PSCL5 WRITEBACK ACCESS:          0  HIT:          0  MISS:          0  HIT %:       -nan  MISS %:       -nan   MPKI: 0
PSCL4 TOTAL     ACCESS:    1691932  HIT:    1691932  MISS:          0  HIT %:        100  MISS %:          0   MPKI: 0
PSCL4 LOAD      ACCESS:          0  HIT:          0  MISS:          0  HIT %:       -nan  MISS %:       -nan   MPKI: 0
PSCL4 RFO       ACCESS:          0  HIT:          0  MISS:          0  HIT %:       -nan  MISS %:       -nan   MPKI: 0
PSCL4 PREFETCH  ACCESS:          0  HIT:          0  MISS:          0  HIT %:       -nan  MISS %:       -nan   MPKI: 0
PSCL4 WRITEBACK ACCESS:          0  HIT:          0  MISS:          0  HIT %:       -nan  MISS %:       -nan   MPKI: 0
PSCL3 TOTAL     ACCESS:    1691932  HIT:    1691932  MISS:          0  HIT %:        100  MISS %:          0   MPKI: 0
PSCL3 LOAD      ACCESS:          0  HIT:          0  MISS:          0  HIT %:       -nan  MISS %:       -nan   MPKI: 0
PSCL3 RFO       ACCESS:          0  HIT:          0  MISS:          0  HIT %:       -nan  MISS %:       -nan   MPKI: 0
PSCL3 PREFETCH  ACCESS:          0  HIT:          0  MISS:          0  HIT %:       -nan  MISS %:       -nan   MPKI: 0
PSCL3 WRITEBACK ACCESS:          0  HIT:          0  MISS:          0  HIT %:       -nan  MISS %:       -nan   MPKI: 0
PSCL2 TOTAL     ACCESS:    1688949  HIT:    1688863  MISS:         86  HIT %:    99.9949  MISS %: 0.00509192   MPKI: 0.000421277
PSCL2 LOAD      ACCESS:          0  HIT:          0  MISS:          0  HIT %:       -nan  MISS %:       -nan   MPKI: 0
PSCL2 RFO       ACCESS:          0  HIT:          0  MISS:          0  HIT %:       -nan  MISS %:       -nan   MPKI: 0
PSCL2 PREFETCH  ACCESS:          0  HIT:          0  MISS:          0  HIT %:       -nan  MISS %:       -nan   MPKI: 0
PSCL2 WRITEBACK ACCESS:          0  HIT:          0  MISS:          0  HIT %:       -nan  MISS %:       -nan   MPKI: 0
LLC TOTAL     ACCESS:   27793245  HIT:   16782346  MISS:   11010899  HIT %:    60.3828  MISS %:    39.6172   MPKI: 53.9377
LLC LOAD      ACCESS:   23038482  HIT:   15844803  MISS:    7193679  HIT %:    68.7754  MISS %:    31.2246   MPKI: 35.2388
LLC RFO       ACCESS:      65393  HIT:       9583  MISS:      55810  HIT %:    14.6545  MISS %:    85.3455   MPKI: 0.273389
LLC PREFETCH  ACCESS:    4543242  HIT:     797167  MISS:    3746075  HIT %:    17.5462  MISS %:    82.4538   MPKI: 18.3504
LLC WRITEBACK ACCESS:     138401  HIT:     128668  MISS:       9733  HIT %:    92.9675  MISS %:    7.03246   MPKI: 0.0476778

RAW hits: 24
Loads Generated: 78984365
Loads sent to L1D: 78984341
Stores Generated: 3349165
Stores sent to L1D: 3349165

CPU 2 cumulative IPC: 0.0641404 instructions: 202132019 cycles: 3151401578
ITLB TOTAL     ACCESS:   60543163  HIT:   60543163  MISS:          0  HIT %:        100  MISS %:          0   MPKI: 0
ITLB LOAD      ACCESS:          0  HIT:          0  MISS:          0  HIT %:       -nan  MISS %:       -nan   MPKI: 0
ITLB RFO       ACCESS:          0  HIT:          0  MISS:          0  HIT %:       -nan  MISS %:       -nan   MPKI: 0
ITLB PREFETCH  ACCESS:          0  HIT:          0  MISS:          0  HIT %:       -nan  MISS %:       -nan   MPKI: 0
ITLB WRITEBACK ACCESS:          0  HIT:          0  MISS:          0  HIT %:       -nan  MISS %:       -nan   MPKI: 0
DTLB TOTAL     ACCESS:   68187730  HIT:   45030880  MISS:   23156850  HIT %:    66.0396  MISS %:    33.9604   MPKI: 114.563
DTLB LOAD      ACCESS:          0  HIT:          0  MISS:          0  HIT %:       -nan  MISS %:       -nan   MPKI: 0
DTLB RFO       ACCESS:          0  HIT:          0  MISS:          0  HIT %:       -nan  MISS %:       -nan   MPKI: 0
DTLB PREFETCH  ACCESS:          0  HIT:          0  MISS:          0  HIT %:       -nan  MISS %:       -nan   MPKI: 0
DTLB WRITEBACK ACCESS:          0  HIT:          0  MISS:          0  HIT %:       -nan  MISS %:       -nan   MPKI: 0
STLB TOTAL     ACCESS:   50210924  HIT:   50169652  MISS:      41272  HIT %:    99.9178  MISS %:  0.0821973   MPKI: 0.204183
STLB LOAD      ACCESS:          0  HIT:          0  MISS:          0  HIT %:       -nan  MISS %:       -nan   MPKI: 0
STLB RFO       ACCESS:          0  HIT:          0  MISS:          0  HIT %:       -nan  MISS %:       -nan   MPKI: 0
STLB PREFETCH  ACCESS:          0  HIT:          0  MISS:          0  HIT %:       -nan  MISS %:       -nan   MPKI: 0
STLB WRITEBACK ACCESS:          0  HIT:          0  MISS:          0  HIT %:       -nan  MISS %:       -nan   MPKI: 0
L1D TOTAL     ACCESS:  207830397  HIT:  172844984  MISS:   34985413  HIT %:    83.1664  MISS %:    16.8336   MPKI: 173.082
L1D LOAD      ACCESS:   65522698  HIT:   33160809  MISS:   32361889  HIT %:    50.6097  MISS %:    49.3903   MPKI: 160.103
L1D RFO       ACCESS:    2424680  HIT:    2359122  MISS:      65558  HIT %:    97.2962  MISS %:    2.70378   MPKI: 0.324333
L1D PREFETCH  ACCESS:  139883019  HIT:  137325053  MISS:    2557966  HIT %:    98.1714  MISS %:    1.82865   MPKI: 12.6549
L1D WRITEBACK ACCESS:          0  HIT:          0  MISS:          0  HIT %:       -nan  MISS %:       -nan   MPKI: 0
L1I TOTAL     ACCESS:   61682050  HIT:   61682027  MISS:         23  HIT %:        100  MISS %: 3.7288e-05   MPKI: 0.000113787
L1I LOAD      ACCESS:   61682050  HIT:   61682027  MISS:         23  HIT %:        100  MISS %: 3.7288e-05   MPKI: 0.000113787
L1I RFO       ACCESS:          0  HIT:          0  MISS:          0  HIT %:       -nan  MISS %:       -nan   MPKI: 0
L1I PREFETCH  ACCESS:          0  HIT:          0  MISS:          0  HIT %:       -nan  MISS %:       -nan   MPKI: 0
L1I WRITEBACK ACCESS:          0  HIT:          0  MISS:          0  HIT %:       -nan  MISS %:       -nan   MPKI: 0
L2C TOTAL     ACCESS:   53405011  HIT:   26060656  MISS:   27344355  HIT %:    48.7981  MISS %:    51.2019   MPKI: 135.28
L2C LOAD      ACCESS:   32338979  HIT:    9461136  MISS:   22877843  HIT %:    29.2561  MISS %:    70.7439   MPKI: 113.183
L2C RFO       ACCESS:      65558  HIT:        218  MISS:      65340  HIT %:    0.33253  MISS %:    99.6675   MPKI: 0.323254
L2C PREFETCH  ACCESS:   19152805  HIT:   14787984  MISS:    4364821  HIT %:    77.2105  MISS %:    22.7895   MPKI: 21.5939
L2C WRITEBACK ACCESS:     150960  HIT:     122178  MISS:      28782  HIT %:     80.934  MISS %:     19.066   MPKI: 0.142392
PSCL5 TOTAL     ACCESS:    1696622  HIT:    1696622  MISS:          0  HIT %:        100  MISS %:          0   MPKI: 0
PSCL5 LOAD      ACCESS:          0  HIT:          0  MISS:          0  HIT %:       -nan  MISS %:       -nan   MPKI: 0
PSCL5 RFO       ACCESS:          0  HIT:          0  MISS:          0  HIT %:       -nan  MISS %:       -nan   MPKI: 0
PSCL5 PREFETCH  ACCESS:          0  HIT:          0  MISS:          0  HIT %:       -nan  MISS %:       -nan   MPKI: 0
PSCL5 WRITEBACK ACCESS:          0  HIT:          0  MISS:          0  HIT %:       -nan  MISS %:       -nan   MPKI: 0
PSCL4 TOTAL     ACCESS:    1696622  HIT:    1696622  MISS:          0  HIT %:        100  MISS %:          0   MPKI: 0
PSCL4 LOAD      ACCESS:          0  HIT:          0  MISS:          0  HIT %:       -nan  MISS %:       -nan   MPKI: 0
PSCL4 RFO       ACCESS:          0  HIT:          0  MISS:          0  HIT %:       -nan  MISS %:       -nan   MPKI: 0
PSCL4 PREFETCH  ACCESS:          0  HIT:          0  MISS:          0  HIT %:       -nan  MISS %:       -nan   MPKI: 0
PSCL4 WRITEBACK ACCESS:          0  HIT:          0  MISS:          0  HIT %:       -nan  MISS %:       -nan   MPKI: 0
PSCL3 TOTAL     ACCESS:    1696622  HIT:    1696622  MISS:          0  HIT %:        100  MISS %:          0   MPKI: 0
PSCL3 LOAD      ACCESS:          0  HIT:          0  MISS:          0  HIT %:       -nan  MISS %:       -nan   MPKI: 0
PSCL3 RFO       ACCESS:          0  HIT:          0  MISS:          0  HIT %:       -nan  MISS %:       -nan   MPKI: 0
PSCL3 PREFETCH  ACCESS:          0  HIT:          0  MISS:          0  HIT %:       -nan  MISS %:       -nan   MPKI: 0
PSCL3 WRITEBACK ACCESS:          0  HIT:          0  MISS:          0  HIT %:       -nan  MISS %:       -nan   MPKI: 0
PSCL2 TOTAL     ACCESS:    1693497  HIT:    1693412  MISS:         85  HIT %:     99.995  MISS %:  0.0050192   MPKI: 0.000420517
PSCL2 LOAD      ACCESS:          0  HIT:          0  MISS:          0  HIT %:       -nan  MISS %:       -nan   MPKI: 0
PSCL2 RFO       ACCESS:          0  HIT:          0  MISS:          0  HIT %:       -nan  MISS %:       -nan   MPKI: 0
PSCL2 PREFETCH  ACCESS:          0  HIT:          0  MISS:          0  HIT %:       -nan  MISS %:       -nan   MPKI: 0
PSCL2 WRITEBACK ACCESS:          0  HIT:          0  MISS:          0  HIT %:       -nan  MISS %:       -nan   MPKI: 0
LLC TOTAL     ACCESS:   27452719  HIT:   16292536  MISS:   11160183  HIT %:    59.3476  MISS %:    40.6524   MPKI: 55.2123
LLC LOAD      ACCESS:   22793866  HIT:   15491623  MISS:    7302243  HIT %:     67.964  MISS %:     32.036   MPKI: 36.1261
LLC RFO       ACCESS:      65340  HIT:       4867  MISS:      60473  HIT %:    7.44873  MISS %:    92.5513   MPKI: 0.299176
LLC PREFETCH  ACCESS:    4448798  HIT:     667622  MISS:    3781176  HIT %:    15.0068  MISS %:    84.9932   MPKI: 18.7065
LLC WRITEBACK ACCESS:     137146  HIT:     126383  MISS:      10763  HIT %:    92.1522  MISS %:    7.84784   MPKI: 0.0532474

RAW hits: 26
Loads Generated: 78191938
Loads sent to L1D: 78191912
Stores Generated: 3327725
Stores sent to L1D: 3327725

CPU 3 cumulative IPC: 0.0641568 instructions: 202183745 cycles: 3151401578
ITLB TOTAL     ACCESS:   60560309  HIT:   60560309  MISS:          0  HIT %:        100  MISS %:          0   MPKI: 0
ITLB LOAD      ACCESS:          0  HIT:          0  MISS:          0  HIT %:       -nan  MISS %:       -nan   MPKI: 0
ITLB RFO       ACCESS:          0  HIT:          0  MISS:          0  HIT %:       -nan  MISS %:       -nan   MPKI: 0
ITLB PREFETCH  ACCESS:          0  HIT:          0  MISS:          0  HIT %:       -nan  MISS %:       -nan   MPKI: 0
ITLB WRITEBACK ACCESS:          0  HIT:          0  MISS:          0  HIT %:       -nan  MISS %:       -nan   MPKI: 0
DTLB TOTAL     ACCESS:   68191482  HIT:   45029136  MISS:   23162346  HIT %:    66.0334  MISS %:    33.9666   MPKI: 114.561
DTLB LOAD      ACCESS:          0  HIT:          0  MISS:          0  HIT %:       -nan  MISS %:       -nan   MPKI: 0
DTLB RFO       ACCESS:          0  HIT:          0  MISS:          0  HIT %:       -nan  MISS %:       -nan   MPKI: 0
DTLB PREFETCH  ACCESS:          0  HIT:          0  MISS:          0  HIT %:       -nan  MISS %:       -nan   MPKI: 0
DTLB WRITEBACK ACCESS:          0  HIT:          0  MISS:          0  HIT %:       -nan  MISS %:       -nan   MPKI: 0
STLB TOTAL     ACCESS:   49986818  HIT:   49945533  MISS:      41285  HIT %:    99.9174  MISS %:  0.0825918   MPKI: 0.204195
STLB LOAD      ACCESS:          0  HIT:          0  MISS:          0  HIT %:       -nan  MISS %:       -nan   MPKI: 0
STLB RFO       ACCESS:          0  HIT:          0  MISS:          0  HIT %:       -nan  MISS %:       -nan   MPKI: 0
STLB PREFETCH  ACCESS:          0  HIT:          0  MISS:          0  HIT %:       -nan  MISS %:       -nan   MPKI: 0
STLB WRITEBACK ACCESS:          0  HIT:          0  MISS:          0  HIT %:       -nan  MISS %:       -nan   MPKI: 0
L1D TOTAL     ACCESS:  207591536  HIT:  172596611  MISS:   34994925  HIT %:    83.1424  MISS %:    16.8576   MPKI: 173.085
L1D LOAD      ACCESS:   65517604  HIT:   33137036  MISS:   32380568  HIT %:    50.5773  MISS %:    49.4227   MPKI: 160.154
L1D RFO       ACCESS:    2482137  HIT:    2416578  MISS:      65559  HIT %:    97.3588  MISS %:    2.64123   MPKI: 0.324255
L1D PREFETCH  ACCESS:  139591795  HIT:  137042997  MISS:    2548798  HIT %:    98.1741  MISS %:    1.82589   MPKI: 12.6063
L1D WRITEBACK ACCESS:          0  HIT:          0  MISS:          0  HIT %:       -nan  MISS %:       -nan   MPKI: 0
L1I TOTAL     ACCESS:   61699517  HIT:   61699494  MISS:         23  HIT %:        100  MISS %: 3.72774e-05   MPKI: 0.000113758
L1I LOAD      ACCESS:   61699517  HIT:   61699494  MISS:         23  HIT %:        100  MISS %: 3.72774e-05   MPKI: 0.000113758
L1I RFO       ACCESS:          0  HIT:          0  MISS:          0  HIT %:       -nan  MISS %:       -nan   MPKI: 0
L1I PREFETCH  ACCESS:          0  HIT:          0  MISS:          0  HIT %:       -nan  MISS %:       -nan   MPKI: 0
L1I WRITEBACK ACCESS:          0  HIT:          0  MISS:          0  HIT %:       -nan  MISS %:       -nan   MPKI: 0
L2C TOTAL     ACCESS:   53122595  HIT:   26082748  MISS:   27039847  HIT %:    49.0992  MISS %:    50.9008   MPKI: 133.739
L2C LOAD      ACCESS:   32357321  HIT:    9760319  MISS:   22597002  HIT %:    30.1642  MISS %:    69.8358   MPKI: 111.765
L2C RFO       ACCESS:      65559  HIT:        334  MISS:      65225  HIT %:   0.509465  MISS %:    99.4905   MPKI: 0.322603
L2C PREFETCH  ACCESS:   18855298  HIT:   14496294  MISS:    4359004  HIT %:    76.8818  MISS %:    23.1182   MPKI: 21.5596
L2C WRITEBACK ACCESS:     150987  HIT:     140160  MISS:      10827  HIT %:    92.8292  MISS %:    7.17082   MPKI: 0.0535503
PSCL5 TOTAL     ACCESS:    1693340  HIT:    1693340  MISS:          0  HIT %:        100  MISS %:          0   MPKI: 0
PSCL5 LOAD      ACCESS:          0  HIT:          0  MISS:          0  HIT %:       -nan  MISS %:       -nan   MPKI: 0
PSCL5 RFO       ACCESS:          0  HIT:          0  MISS:          0  HIT %:       -nan  MISS %:       -nan   MPKI: 0
PSCL5 PREFETCH  ACCESS:          0  HIT:          0  MISS:          0  HIT %:       -nan  MISS %:       -nan   MPKI: 0
PSCL5 WRITEBACK ACCESS:          0  HIT:          0  MISS:          0  HIT %:       -nan  MISS %:       -nan   MPKI: 0
PSCL4 TOTAL     ACCESS:    1693340  HIT:    1693340  MISS:          0  HIT %:        100  MISS %:          0   MPKI: 0
PSCL4 LOAD      ACCESS:          0  HIT:          0  MISS:          0  HIT %:       -nan  MISS %:       -nan   MPKI: 0
PSCL4 RFO       ACCESS:          0  HIT:          0  MISS:          0  HIT %:       -nan  MISS %:       -nan   MPKI: 0
PSCL4 PREFETCH  ACCESS:          0  HIT:          0  MISS:          0  HIT %:       -nan  MISS %:       -nan   MPKI: 0
PSCL4 WRITEBACK ACCESS:          0  HIT:          0  MISS:          0  HIT %:       -nan  MISS %:       -nan   MPKI: 0
PSCL3 TOTAL     ACCESS:    1693340  HIT:    1693340  MISS:          0  HIT %:        100  MISS %:          0   MPKI: 0
PSCL3 LOAD      ACCESS:          0  HIT:          0  MISS:          0  HIT %:       -nan  MISS %:       -nan   MPKI: 0
PSCL3 RFO       ACCESS:          0  HIT:          0  MISS:          0  HIT %:       -nan  MISS %:       -nan   MPKI: 0
PSCL3 PREFETCH  ACCESS:          0  HIT:          0  MISS:          0  HIT %:       -nan  MISS %:       -nan   MPKI: 0
PSCL3 WRITEBACK ACCESS:          0  HIT:          0  MISS:          0  HIT %:       -nan  MISS %:       -nan   MPKI: 0
PSCL2 TOTAL     ACCESS:    1690375  HIT:    1690290  MISS:         85  HIT %:     99.995  MISS %: 0.00502847   MPKI: 0.00042041
PSCL2 LOAD      ACCESS:          0  HIT:          0  MISS:          0  HIT %:       -nan  MISS %:       -nan   MPKI: 0
PSCL2 RFO       ACCESS:          0  HIT:          0  MISS:          0  HIT %:       -nan  MISS %:       -nan   MPKI: 0
PSCL2 PREFETCH  ACCESS:          0  HIT:          0  MISS:          0  HIT %:       -nan  MISS %:       -nan   MPKI: 0
PSCL2 WRITEBACK ACCESS:          0  HIT:          0  MISS:          0  HIT %:       -nan  MISS %:       -nan   MPKI: 0
LLC TOTAL     ACCESS:   27166645  HIT:   16001882  MISS:   11164763  HIT %:    58.9027  MISS %:    41.0973   MPKI: 55.2209
LLC LOAD      ACCESS:   22512242  HIT:   15169919  MISS:    7342323  HIT %:    67.3852  MISS %:    32.6148   MPKI: 36.3151
LLC RFO       ACCESS:      65225  HIT:       8528  MISS:      56697  HIT %:    13.0747  MISS %:    86.9253   MPKI: 0.280423
LLC PREFETCH  ACCESS:    4443764  HIT:     692573  MISS:    3751191  HIT %:    15.5853  MISS %:    84.4147   MPKI: 18.5534
LLC WRITEBACK ACCESS:     137625  HIT:     128606  MISS:       9019  HIT %:    93.4467  MISS %:    6.55332   MPKI: 0.0446079

RAW hits: 24
Loads Generated: 78212267
Loads sent to L1D: 78212242
Stores Generated: 3328383
Stores sent to L1D: 3328383

Region of Interest Statistics

CPU 0 cumulative IPC: 0.0634638 instructions: 200000003 cycles: 3151401578
ITLB TOTAL     ACCESS:   59888588  HIT:   59888588  MISS:          0  HIT %:        100  MISS %:          0   MPKI: 0
ITLB LOAD TRANSLATION ACCESS:   59888588  HIT:   59888588  MISS:          0  HIT %:        100  MISS %:          0   MPKI: 0
ITLB PREFETCH  REQUESTED:          0  ISSUED:          0  USEFUL:          0  USELESS:          0
ITLB USEFUL LOAD PREFETCHES:          0 PREFETCH ISSUED TO LOWER LEVEL:          0  ACCURACY: -nan
ITLB TIMELY PREFETCHES:          0 LATE PREFETCHES: 0 DROPPED PREFETCHES: 0
ITLB PREFETCHES SAME FILL-ORIGIN LEVEL: 0 DIFFERENT FILL-ORIGIN LEVEL: 0
ITLB AVERAGE MISS LATENCY: -nan cycles
ITLB RQ	ACCESS:   61014012	FORWARD:          0	MERGED:    1125425	TO_CACHE:   59888587

DTLB TOTAL     ACCESS:   67542568  HIT:   44654780  MISS:   22887788  HIT %:    66.1135  MISS %:    33.8865   MPKI: 114.439
DTLB LOAD TRANSLATION ACCESS:   67542568  HIT:   44654780  MISS:   22887788  HIT %:    66.1135  MISS %:    33.8865   MPKI: 114.439
DTLB PREFETCH  REQUESTED:          0  ISSUED:          0  USEFUL:          0  USELESS:          0
DTLB USEFUL LOAD PREFETCHES:          0 PREFETCH ISSUED TO LOWER LEVEL:          0  ACCURACY: -nan
DTLB TIMELY PREFETCHES:          0 LATE PREFETCHES: 0 DROPPED PREFETCHES: 0
DTLB PREFETCHES SAME FILL-ORIGIN LEVEL: 0 DIFFERENT FILL-ORIGIN LEVEL: 0
DTLB AVERAGE MISS LATENCY: 9.12808 cycles
DTLB RQ	ACCESS:   68312004	FORWARD:          0	MERGED:     759049	TO_CACHE:   67552955

STLB TOTAL     ACCESS:   49693110  HIT:   49652245  MISS:      40865  HIT %:    99.9178  MISS %:  0.0822347   MPKI: 0.204325
STLB LOAD TRANSLATION ACCESS:   22887787  HIT:   22862312  MISS:      25475  HIT %:    99.8887  MISS %:   0.111304   MPKI: 0.127375
STLB TRANSLATION FROM L1D PREFETCHER ACCESS:   26805323  HIT:   26789933  MISS:      15390  HIT %:    99.9426  MISS %:   0.057414   MPKI: 0.07695
STLB PREFETCH  REQUESTED:          0  ISSUED:          0  USEFUL:      15390  USELESS:          0
STLB USEFUL LOAD PREFETCHES:      15390 PREFETCH ISSUED TO LOWER LEVEL:          0  ACCURACY: inf
STLB TIMELY PREFETCHES:      15390 LATE PREFETCHES: 4224 DROPPED PREFETCHES: 1646044
STLB PREFETCHES SAME FILL-ORIGIN LEVEL: 0 DIFFERENT FILL-ORIGIN LEVEL: 0
STLB AVERAGE MISS LATENCY: 90.246 cycles
STLB RQ	ACCESS:  191292620	FORWARD:          0	MERGED:  139908565	TO_CACHE:   51384055

STLB Hit, L1D data hit: 0
STLB Hit, L2C data hit: 0
STLB Hit, LLC data hit: 0
STLB Hit, LLC data miss: 0
STLB STLB hints to L2: 0
L1D TOTAL     ACCESS:  207020893  HIT:  172421378  MISS:   34599515  HIT %:    83.2869  MISS %:    16.7131   MPKI: 172.998
L1D LOAD      ACCESS:   64939982  HIT:   32962013  MISS:   31977969  HIT %:    50.7577  MISS %:    49.2423   MPKI: 159.89
L1D RFO       ACCESS:    2452468  HIT:    2386910  MISS:      65558  HIT %:    97.3269  MISS %:    2.67314   MPKI: 0.32779
L1D PREFETCH  ACCESS:  139628443  HIT:  137072455  MISS:    2555988  HIT %:    98.1694  MISS %:    1.83056   MPKI: 12.7799
L1D PREFETCH  REQUESTED:  356776544  ISSUED:  355890504  USEFUL:    2487144  USELESS:      68864
L1D USEFUL LOAD PREFETCHES:    2487144 PREFETCH ISSUED TO LOWER LEVEL:   20998734  ACCURACY: 11.8443
L1D TIMELY PREFETCHES:    2487144 LATE PREFETCHES: 21299 DROPPED PREFETCHES: 6008162
L1D PREFETCHES SAME FILL-ORIGIN LEVEL: 2577287 DIFFERENT FILL-ORIGIN LEVEL: 18421447
L1D AVERAGE MISS LATENCY: 84.0982 cycles
L1D RQ	ACCESS:   77353227	FORWARD:          0	MERGED:   12342010	TO_CACHE:   65011208
L1D WQ	ACCESS:    3300799	FORWARD:          9	MERGED:          3	TO_CACHE:    3300796
L1D PQ	ACCESS:  187485671	FORWARD:          0	MERGED:   19080838	TO_CACHE:  168404833

L1D UNIQUE REGIONS ACCESSED: 0
L1D REGIONS CONFLICTS: 0
L1D Cross Page Prefetch Requests: 18279872
L1D Same Page Prefetch Requests: 229101475
L1D ROI Sum of L1D PQ occupancy: 2189984243
L1D PREFETCHES PUSHED FROM L2C: 0
L1I TOTAL     ACCESS:   61014012  HIT:   61013989  MISS:         23  HIT %:        100  MISS %: 3.76963e-05   MPKI: 0.000115
L1I LOAD      ACCESS:   61014012  HIT:   61013989  MISS:         23  HIT %:        100  MISS %: 3.76963e-05   MPKI: 0.000115
L1I PREFETCH  REQUESTED:          0  ISSUED:          0  USEFUL:          0  USELESS:          0
L1I USEFUL LOAD PREFETCHES:          0 PREFETCH ISSUED TO LOWER LEVEL:          0  ACCURACY: -nan
L1I TIMELY PREFETCHES:          0 LATE PREFETCHES: 0 DROPPED PREFETCHES: 0
L1I PREFETCHES SAME FILL-ORIGIN LEVEL: 0 DIFFERENT FILL-ORIGIN LEVEL: 0
L1I AVERAGE MISS LATENCY: 226.565 cycles
L1I RQ	ACCESS:   72045380	FORWARD:          0	MERGED:   11031368	TO_CACHE:   61014012

BTB TOTAL     ACCESS:   37026483  HIT:   37026314  MISS:        169  HIT %:    99.9995  MISS %: 0.00045643   MPKI: 0.000845
BTB BRANCH_DIRECT_JUMP	ACCESS:         66  HIT:         33  MISS:         33
BTB BRANCH_INDIRECT	ACCESS:          4  HIT:          0  MISS:          4
BTB BRANCH_CONDITIONAL	ACCESS:   37026347  HIT:   37026261  MISS:         86
BTB BRANCH_DIRECT_CALL	ACCESS:         28  HIT:         10  MISS:         18
BTB BRANCH_INDIRECT_CALL	ACCESS:          5  HIT:          1  MISS:          4
BTB BRANCH_RETURN	ACCESS:         33  HIT:          9  MISS:         24
BTB BRANCH_OTHER ACCESS:          0  HIT:          0  MISS:          0

L2C TOTAL     ACCESS:   52578930  HIT:   25476444  MISS:   27102486  HIT %:    48.4537  MISS %:    51.5463   MPKI: 135.512
L2C LOAD      ACCESS:   31956692  HIT:    9298879  MISS:   22657813  HIT %:    29.0984  MISS %:    70.9016   MPKI: 113.289
L2C DATA LOAD MPKI: 113.289
L2C INSTRUCTION LOAD MPKI: 0.000115
L2C RFO       ACCESS:      65558  HIT:        152  MISS:      65406  HIT %:   0.231856  MISS %:    99.7681   MPKI: 0.32703
L2C PREFETCH  ACCESS:   18715483  HIT:   14371510  MISS:    4343973  HIT %:    76.7894  MISS %:    23.2106   MPKI: 21.7199
L2C DATA PREFETCH MPKI: 21.7199
L2C INSTRUCTION PREFETCH MPKI: 0
L2C WRITEBACK ACCESS:     149981  HIT:     122249  MISS:      27732  HIT %:    81.5097  MISS %:    18.4903   MPKI: 0.13866
L2C LOAD TRANSLATION ACCESS:      25486  HIT:      25230  MISS:        256  HIT %:    98.9955  MISS %:    1.00447   MPKI: 0.00128
L2C TRANSLATION FROM L1D PREFETCHER ACCESS:    1665730  HIT:    1658424  MISS:       7306  HIT %:    99.5614  MISS %:   0.438606   MPKI: 0.03653
L2C PREFETCH  REQUESTED:          0  ISSUED:          0  USEFUL:     456809  USELESS:    3894531
L2C USEFUL LOAD PREFETCHES:     456809 PREFETCH ISSUED TO LOWER LEVEL:    4420058  ACCURACY: 10.3349
L2C TIMELY PREFETCHES:     456809 LATE PREFETCHES: 76085 DROPPED PREFETCHES: 0
L2C PREFETCHES SAME FILL-ORIGIN LEVEL: 2782655 DIFFERENT FILL-ORIGIN LEVEL: 0
L2C AVERAGE MISS LATENCY: 107.414 cycles
L2C RQ	ACCESS:   33713467	FORWARD:          0	MERGED:          0	TO_CACHE:   33713466
L2C WQ	ACCESS:     149981	FORWARD:          1	MERGED:          0	TO_CACHE:     149981
L2C PQ	ACCESS:   20998734	FORWARD:          0	MERGED:      36573	TO_CACHE:   20962161

L2C Instructions Evicting Data 23
L2C Translations Evicting Data 7557
L2C Data Evicting Data 27059600
L2C Instructions Evicting Instructions 0
L2C Translations Evicting Instructions 2
L2C Data Evicting Instructions 21
L2C Instructions Evicting Translations 0
L2C Translations Evicting Translations 3
L2C Data Evicting Translations 7548
L2C Dense regions hint from L2: 0
PSCL5 TOTAL     ACCESS:    1691133  HIT:    1691133  MISS:          0  HIT %:        100  MISS %:          0   MPKI: 0
PSCL5 LOAD TRANSLATION ACCESS:      25475  HIT:      25475  MISS:          0  HIT %:        100  MISS %:          0   MPKI: 0
PSCL5 TRANSLATION FROM L1D PREFETCHER ACCESS:    1665658  HIT:    1665658  MISS:          0  HIT %:        100  MISS %:          0   MPKI: 0
PSCL5 PREFETCH  REQUESTED:          0  ISSUED:          0  USEFUL:          0  USELESS:          0
PSCL5 USEFUL LOAD PREFETCHES:          0 PREFETCH ISSUED TO LOWER LEVEL:          0  ACCURACY: -nan
PSCL5 TIMELY PREFETCHES:          0 LATE PREFETCHES: 0 DROPPED PREFETCHES: 0
PSCL5 PREFETCHES SAME FILL-ORIGIN LEVEL: 0 DIFFERENT FILL-ORIGIN LEVEL: 0

PSCL4 TOTAL     ACCESS:    1691133  HIT:    1691133  MISS:          0  HIT %:        100  MISS %:          0   MPKI: 0
PSCL4 LOAD TRANSLATION ACCESS:      25475  HIT:      25475  MISS:          0  HIT %:        100  MISS %:          0   MPKI: 0
PSCL4 TRANSLATION FROM L1D PREFETCHER ACCESS:    1665658  HIT:    1665658  MISS:          0  HIT %:        100  MISS %:          0   MPKI: 0
PSCL4 PREFETCH  REQUESTED:          0  ISSUED:          0  USEFUL:          0  USELESS:          0
PSCL4 USEFUL LOAD PREFETCHES:          0 PREFETCH ISSUED TO LOWER LEVEL:          0  ACCURACY: -nan
PSCL4 TIMELY PREFETCHES:          0 LATE PREFETCHES: 0 DROPPED PREFETCHES: 0
PSCL4 PREFETCHES SAME FILL-ORIGIN LEVEL: 0 DIFFERENT FILL-ORIGIN LEVEL: 0

PSCL3 TOTAL     ACCESS:    1691133  HIT:    1691133  MISS:          0  HIT %:        100  MISS %:          0   MPKI: 0
PSCL3 LOAD TRANSLATION ACCESS:      25475  HIT:      25475  MISS:          0  HIT %:        100  MISS %:          0   MPKI: 0
PSCL3 TRANSLATION FROM L1D PREFETCHER ACCESS:    1665658  HIT:    1665658  MISS:          0  HIT %:        100  MISS %:          0   MPKI: 0
PSCL3 PREFETCH  REQUESTED:          0  ISSUED:          0  USEFUL:          0  USELESS:          0
PSCL3 USEFUL LOAD PREFETCHES:          0 PREFETCH ISSUED TO LOWER LEVEL:          0  ACCURACY: -nan
PSCL3 TIMELY PREFETCHES:          0 LATE PREFETCHES: 0 DROPPED PREFETCHES: 0
PSCL3 PREFETCHES SAME FILL-ORIGIN LEVEL: 0 DIFFERENT FILL-ORIGIN LEVEL: 0

PSCL2 TOTAL     ACCESS:    1688093  HIT:    1688009  MISS:         84  HIT %:     99.995  MISS %: 0.00497603   MPKI: 0.00042
PSCL2 LOAD TRANSLATION ACCESS:      25501  HIT:      25417  MISS:         84  HIT %:    99.6706  MISS %:   0.329399   MPKI: 0.00042
PSCL2 TRANSLATION FROM L1D PREFETCHER ACCESS:    1662592  HIT:    1662592  MISS:          0  HIT %:        100  MISS %:          0   MPKI: 0
PSCL2 PREFETCH  REQUESTED:          0  ISSUED:          0  USEFUL:          0  USELESS:          0
PSCL2 USEFUL LOAD PREFETCHES:          0 PREFETCH ISSUED TO LOWER LEVEL:          0  ACCURACY: -nan
PSCL2 TIMELY PREFETCHES:          0 LATE PREFETCHES: 0 DROPPED PREFETCHES: 0
PSCL2 PREFETCHES SAME FILL-ORIGIN LEVEL: 0 DIFFERENT FILL-ORIGIN LEVEL: 0

LLC TOTAL     ACCESS:   27212262  HIT:   15979841  MISS:   11232421  HIT %:    58.7229  MISS %:    41.2771   MPKI: 56.1621
LLC LOAD      ACCESS:   22581728  HIT:   15181553  MISS:    7400175  HIT %:    67.2294  MISS %:    32.7706   MPKI: 37.0009
LLC RFO       ACCESS:      65406  HIT:       9275  MISS:      56131  HIT %:    14.1807  MISS %:    85.8193   MPKI: 0.280655
LLC PREFETCH  ACCESS:    4420058  HIT:     659092  MISS:    3760966  HIT %:    14.9114  MISS %:    85.0886   MPKI: 18.8048
LLC WRITEBACK ACCESS:     137508  HIT:     127841  MISS:       9667  HIT %:    92.9699  MISS %:    7.03014   MPKI: 0.048335
LLC LOAD TRANSLATION ACCESS:        256  HIT:         16  MISS:        240  HIT %:       6.25  MISS %:      93.75   MPKI: 0.0012
LLC TRANSLATION FROM L1D PREFETCHER ACCESS:       7306  HIT:       2064  MISS:       5242  HIT %:    28.2508  MISS %:    71.7492   MPKI: 0.02621
LLC PREFETCH  REQUESTED:          0  ISSUED:          0  USEFUL:     703799  USELESS:   14349884
LLC USEFUL LOAD PREFETCHES:     703799 PREFETCH ISSUED TO LOWER LEVEL:   15040035  ACCURACY: 4.6795
LLC TIMELY PREFETCHES:     703799 LATE PREFETCHES: 0 DROPPED PREFETCHES: 0
LLC PREFETCHES SAME FILL-ORIGIN LEVEL: 0 DIFFERENT FILL-ORIGIN LEVEL: 0
LLC AVERAGE MISS LATENCY: 754.046 cycles
LLC RQ	ACCESS:   91218330	FORWARD:          0	MERGED:          0	TO_CACHE:   91218330
LLC WQ	ACCESS:     550680	FORWARD:          0	MERGED:          0	TO_CACHE:     550680
LLC PQ	ACCESS:   17855863	FORWARD:          0	MERGED:          0	TO_CACHE:   17855863

LLC Dense regions hint to LLC: 0

RAW hits: 24
Loads Generated: 77353252
Loads sent to L1D: 77353227
Stores Generated: 3300799
Stores sent to L1D: 3300799
Major fault: 0 Minor fault: 34900
Allocated PAGES: 139600

CPU 1 cumulative IPC: 0.0648451 instructions: 200000000 cycles: 3084274433
ITLB TOTAL     ACCESS:   59885730  HIT:   59885730  MISS:          0  HIT %:        100  MISS %:          0   MPKI: 0
ITLB LOAD TRANSLATION ACCESS:   59885730  HIT:   59885730  MISS:          0  HIT %:        100  MISS %:          0   MPKI: 0
ITLB PREFETCH  REQUESTED:          0  ISSUED:          0  USEFUL:          0  USELESS:          0
ITLB USEFUL LOAD PREFETCHES:          0 PREFETCH ISSUED TO LOWER LEVEL:          0  ACCURACY: -nan
ITLB TIMELY PREFETCHES:          0 LATE PREFETCHES: 0 DROPPED PREFETCHES: 0
ITLB PREFETCHES SAME FILL-ORIGIN LEVEL: 0 DIFFERENT FILL-ORIGIN LEVEL: 0
ITLB AVERAGE MISS LATENCY: -nan cycles
ITLB RQ	ACCESS:   62320825	FORWARD:          0	MERGED:    1149604	TO_CACHE:   61171221

DTLB TOTAL     ACCESS:   67518659  HIT:   44630844  MISS:   22887815  HIT %:    66.1015  MISS %:    33.8985   MPKI: 114.439
DTLB LOAD TRANSLATION ACCESS:   67518659  HIT:   44630844  MISS:   22887815  HIT %:    66.1015  MISS %:    33.8985   MPKI: 114.439
DTLB PREFETCH  REQUESTED:          0  ISSUED:          0  USEFUL:          0  USELESS:          0
DTLB USEFUL LOAD PREFETCHES:          0 PREFETCH ISSUED TO LOWER LEVEL:          0  ACCURACY: -nan
DTLB TIMELY PREFETCHES:          0 LATE PREFETCHES: 0 DROPPED PREFETCHES: 0
DTLB PREFETCHES SAME FILL-ORIGIN LEVEL: 0 DIFFERENT FILL-ORIGIN LEVEL: 0
DTLB AVERAGE MISS LATENCY: 9.32109 cycles
DTLB RQ	ACCESS:   69730357	FORWARD:          0	MERGED:     775263	TO_CACHE:   68955094

STLB TOTAL     ACCESS:   49611865  HIT:   49571001  MISS:      40864  HIT %:    99.9176  MISS %:  0.0823674   MPKI: 0.20432
STLB LOAD TRANSLATION ACCESS:   22887815  HIT:   22862303  MISS:      25512  HIT %:    99.8885  MISS %:   0.111465   MPKI: 0.12756
STLB TRANSLATION FROM L1D PREFETCHER ACCESS:   26724050  HIT:   26708698  MISS:      15352  HIT %:    99.9426  MISS %:  0.0574464   MPKI: 0.07676
STLB PREFETCH  REQUESTED:          0  ISSUED:          0  USEFUL:      16149  USELESS:          0
STLB USEFUL LOAD PREFETCHES:      16149 PREFETCH ISSUED TO LOWER LEVEL:          0  ACCURACY: inf
STLB TIMELY PREFETCHES:      16149 LATE PREFETCHES: 4228 DROPPED PREFETCHES: 1646059
STLB PREFETCHES SAME FILL-ORIGIN LEVEL: 0 DIFFERENT FILL-ORIGIN LEVEL: 0
STLB AVERAGE MISS LATENCY: 91.1423 cycles
STLB RQ	ACCESS:  194621342	FORWARD:          0	MERGED:  142213913	TO_CACHE:   52407429

STLB Hit, L1D data hit: 0
STLB Hit, L2C data hit: 0
STLB Hit, LLC data hit: 0
STLB Hit, LLC data miss: 0
STLB STLB hints to L2: 0
L1D TOTAL     ACCESS:  206049753  HIT:  171448487  MISS:   34601266  HIT %:    83.2073  MISS %:    16.7927   MPKI: 173.006
L1D LOAD      ACCESS:   64889663  HIT:   32890941  MISS:   31998722  HIT %:    50.6875  MISS %:    49.3125   MPKI: 159.994
L1D RFO       ACCESS:    2464629  HIT:    2399070  MISS:      65559  HIT %:      97.34  MISS %:    2.65999   MPKI: 0.327795
L1D PREFETCH  ACCESS:  138695461  HIT:  136158476  MISS:    2536985  HIT %:    98.1708  MISS %:    1.82918   MPKI: 12.6849
L1D PREFETCH  REQUESTED:  362367133  ISSUED:  361702020  USEFUL:    2516994  USELESS:      71742
L1D USEFUL LOAD PREFETCHES:    2516994 PREFETCH ISSUED TO LOWER LEVEL:   21390257  ACCURACY: 11.767
L1D TIMELY PREFETCHES:    2516994 LATE PREFETCHES: 21597 DROPPED PREFETCHES: 6008522
L1D PREFETCHES SAME FILL-ORIGIN LEVEL: 2610331 DIFFERENT FILL-ORIGIN LEVEL: 18779926
L1D AVERAGE MISS LATENCY: 83.9599 cycles
L1D RQ	ACCESS:   78984341	FORWARD:          0	MERGED:   12603137	TO_CACHE:   66381195
L1D WQ	ACCESS:    3349165	FORWARD:          9	MERGED:          3	TO_CACHE:    3349162
L1D PQ	ACCESS:  190460029	FORWARD:          0	MERGED:   19218038	TO_CACHE:  171241991

L1D UNIQUE REGIONS ACCESSED: 0
L1D REGIONS CONFLICTS: 0
L1D Cross Page Prefetch Requests: 18524180
L1D Same Page Prefetch Requests: 231809309
L1D ROI Sum of L1D PQ occupancy: 2225081822
L1D PREFETCHES PUSHED FROM L2C: 0
L1I TOTAL     ACCESS:   61011213  HIT:   61011190  MISS:         23  HIT %:        100  MISS %: 3.7698e-05   MPKI: 0.000115
L1I LOAD      ACCESS:   61011213  HIT:   61011190  MISS:         23  HIT %:        100  MISS %: 3.7698e-05   MPKI: 0.000115
L1I PREFETCH  REQUESTED:          0  ISSUED:          0  USEFUL:          0  USELESS:          0
L1I USEFUL LOAD PREFETCHES:          0 PREFETCH ISSUED TO LOWER LEVEL:          0  ACCURACY: -nan
L1I TIMELY PREFETCHES:          0 LATE PREFETCHES: 0 DROPPED PREFETCHES: 0
L1I PREFETCHES SAME FILL-ORIGIN LEVEL: 0 DIFFERENT FILL-ORIGIN LEVEL: 0
L1I AVERAGE MISS LATENCY: 226.261 cycles
L1I RQ	ACCESS:   73570899	FORWARD:          0	MERGED:   11250074	TO_CACHE:   62320825

BTB TOTAL     ACCESS:   37026330  HIT:   37026161  MISS:        169  HIT %:    99.9995  MISS %: 0.000456432   MPKI: 0.000845
BTB BRANCH_DIRECT_JUMP	ACCESS:         66  HIT:         33  MISS:         33
BTB BRANCH_INDIRECT	ACCESS:          4  HIT:          0  MISS:          4
BTB BRANCH_CONDITIONAL	ACCESS:   37026194  HIT:   37026108  MISS:         86
BTB BRANCH_DIRECT_CALL	ACCESS:         28  HIT:         10  MISS:         18
BTB BRANCH_INDIRECT_CALL	ACCESS:          5  HIT:          1  MISS:          4
BTB BRANCH_RETURN	ACCESS:         33  HIT:          9  MISS:         24
BTB BRANCH_OTHER ACCESS:          0  HIT:          0  MISS:          0

L2C TOTAL     ACCESS:   52640960  HIT:   25566340  MISS:   27074620  HIT %:    48.5674  MISS %:    51.4326   MPKI: 135.373
L2C LOAD      ACCESS:   31977192  HIT:    9356613  MISS:   22620579  HIT %:    29.2603  MISS %:    70.7397   MPKI: 113.103
L2C DATA LOAD MPKI: 113.103
L2C INSTRUCTION LOAD MPKI: 0.000115
L2C RFO       ACCESS:      65559  HIT:        166  MISS:      65393  HIT %:   0.253207  MISS %:    99.7468   MPKI: 0.326965
L2C PREFETCH  ACCESS:   18757012  HIT:   14403851  MISS:    4353161  HIT %:    76.7918  MISS %:    23.2082   MPKI: 21.7658
L2C DATA PREFETCH MPKI: 21.7658
L2C INSTRUCTION PREFETCH MPKI: 0
L2C WRITEBACK ACCESS:     149974  HIT:     122058  MISS:      27916  HIT %:    81.3861  MISS %:    18.6139   MPKI: 0.13958
L2C LOAD TRANSLATION ACCESS:      25507  HIT:      25252  MISS:        255  HIT %:    99.0003  MISS %:   0.999726   MPKI: 0.001275
L2C TRANSLATION FROM L1D PREFETCHER ACCESS:    1665716  HIT:    1658400  MISS:       7316  HIT %:    99.5608  MISS %:   0.439211   MPKI: 0.03658
L2C PREFETCH  REQUESTED:          0  ISSUED:          0  USEFUL:     494660  USELESS:    3976963
L2C USEFUL LOAD PREFETCHES:     494660 PREFETCH ISSUED TO LOWER LEVEL:    4543243  ACCURACY: 10.8878
L2C TIMELY PREFETCHES:     494660 LATE PREFETCHES: 78609 DROPPED PREFETCHES: 0
L2C PREFETCHES SAME FILL-ORIGIN LEVEL: 2852208 DIFFERENT FILL-ORIGIN LEVEL: 0
L2C AVERAGE MISS LATENCY: 106.629 cycles
L2C RQ	ACCESS:   34437849	FORWARD:          0	MERGED:          0	TO_CACHE:   34437849
L2C WQ	ACCESS:     151782	FORWARD:          0	MERGED:          0	TO_CACHE:     151782
L2C PQ	ACCESS:   21390257	FORWARD:          0	MERGED:      38714	TO_CACHE:   21351543

L2C Instructions Evicting Data 23
L2C Translations Evicting Data 7724
L2C Data Evicting Data 27639361
L2C Instructions Evicting Instructions 0
L2C Translations Evicting Instructions 0
L2C Data Evicting Instructions 23
L2C Instructions Evicting Translations 0
L2C Translations Evicting Translations 3
L2C Data Evicting Translations 7710
L2C Dense regions hint from L2: 0
PSCL5 TOTAL     ACCESS:    1691132  HIT:    1691132  MISS:          0  HIT %:        100  MISS %:          0   MPKI: 0
PSCL5 LOAD TRANSLATION ACCESS:      25496  HIT:      25496  MISS:          0  HIT %:        100  MISS %:          0   MPKI: 0
PSCL5 TRANSLATION FROM L1D PREFETCHER ACCESS:    1665636  HIT:    1665636  MISS:          0  HIT %:        100  MISS %:          0   MPKI: 0
PSCL5 PREFETCH  REQUESTED:          0  ISSUED:          0  USEFUL:          0  USELESS:          0
PSCL5 USEFUL LOAD PREFETCHES:          0 PREFETCH ISSUED TO LOWER LEVEL:          0  ACCURACY: -nan
PSCL5 TIMELY PREFETCHES:          0 LATE PREFETCHES: 0 DROPPED PREFETCHES: 0
PSCL5 PREFETCHES SAME FILL-ORIGIN LEVEL: 0 DIFFERENT FILL-ORIGIN LEVEL: 0

PSCL4 TOTAL     ACCESS:    1691132  HIT:    1691132  MISS:          0  HIT %:        100  MISS %:          0   MPKI: 0
PSCL4 LOAD TRANSLATION ACCESS:      25496  HIT:      25496  MISS:          0  HIT %:        100  MISS %:          0   MPKI: 0
PSCL4 TRANSLATION FROM L1D PREFETCHER ACCESS:    1665636  HIT:    1665636  MISS:          0  HIT %:        100  MISS %:          0   MPKI: 0
PSCL4 PREFETCH  REQUESTED:          0  ISSUED:          0  USEFUL:          0  USELESS:          0
PSCL4 USEFUL LOAD PREFETCHES:          0 PREFETCH ISSUED TO LOWER LEVEL:          0  ACCURACY: -nan
PSCL4 TIMELY PREFETCHES:          0 LATE PREFETCHES: 0 DROPPED PREFETCHES: 0
PSCL4 PREFETCHES SAME FILL-ORIGIN LEVEL: 0 DIFFERENT FILL-ORIGIN LEVEL: 0

PSCL3 TOTAL     ACCESS:    1691132  HIT:    1691132  MISS:          0  HIT %:        100  MISS %:          0   MPKI: 0
PSCL3 LOAD TRANSLATION ACCESS:      25496  HIT:      25496  MISS:          0  HIT %:        100  MISS %:          0   MPKI: 0
PSCL3 TRANSLATION FROM L1D PREFETCHER ACCESS:    1665636  HIT:    1665636  MISS:          0  HIT %:        100  MISS %:          0   MPKI: 0
PSCL3 PREFETCH  REQUESTED:          0  ISSUED:          0  USEFUL:          0  USELESS:          0
PSCL3 USEFUL LOAD PREFETCHES:          0 PREFETCH ISSUED TO LOWER LEVEL:          0  ACCURACY: -nan
PSCL3 TIMELY PREFETCHES:          0 LATE PREFETCHES: 0 DROPPED PREFETCHES: 0
PSCL3 PREFETCHES SAME FILL-ORIGIN LEVEL: 0 DIFFERENT FILL-ORIGIN LEVEL: 0

PSCL2 TOTAL     ACCESS:    1688149  HIT:    1688065  MISS:         84  HIT %:     99.995  MISS %: 0.00497586   MPKI: 0.00042
PSCL2 LOAD TRANSLATION ACCESS:      25522  HIT:      25438  MISS:         84  HIT %:    99.6709  MISS %:   0.329128   MPKI: 0.00042
PSCL2 TRANSLATION FROM L1D PREFETCHER ACCESS:    1662627  HIT:    1662627  MISS:          0  HIT %:        100  MISS %:          0   MPKI: 0
PSCL2 PREFETCH  REQUESTED:          0  ISSUED:          0  USEFUL:          0  USELESS:          0
PSCL2 USEFUL LOAD PREFETCHES:          0 PREFETCH ISSUED TO LOWER LEVEL:          0  ACCURACY: -nan
PSCL2 TIMELY PREFETCHES:          0 LATE PREFETCHES: 0 DROPPED PREFETCHES: 0
PSCL2 PREFETCHES SAME FILL-ORIGIN LEVEL: 0 DIFFERENT FILL-ORIGIN LEVEL: 0

LLC TOTAL     ACCESS:   27183569  HIT:   16415256  MISS:   10768313  HIT %:    60.3867  MISS %:    39.6133   MPKI: 53.8416
LLC LOAD      ACCESS:   22544828  HIT:   15505152  MISS:    7039676  HIT %:    68.7748  MISS %:    31.2252   MPKI: 35.1984
LLC RFO       ACCESS:      65393  HIT:       9583  MISS:      55810  HIT %:    14.6545  MISS %:    85.3455   MPKI: 0.27905
LLC PREFETCH  ACCESS:    4428912  HIT:     771211  MISS:    3657701  HIT %:    17.4131  MISS %:    82.5869   MPKI: 18.2885
LLC WRITEBACK ACCESS:     136865  HIT:     127234  MISS:       9631  HIT %:    92.9631  MISS %:    7.03686   MPKI: 0.048155
LLC LOAD TRANSLATION ACCESS:        255  HIT:         27  MISS:        228  HIT %:    10.5882  MISS %:    89.4118   MPKI: 0.00114
LLC TRANSLATION FROM L1D PREFETCHER ACCESS:       7316  HIT:       2049  MISS:       5267  HIT %:    28.0071  MISS %:    71.9929   MPKI: 0.026335
LLC PREFETCH  REQUESTED:          0  ISSUED:          0  USEFUL:     703799  USELESS:   14349884
LLC USEFUL LOAD PREFETCHES:     703799 PREFETCH ISSUED TO LOWER LEVEL:   15040035  ACCURACY: 4.6795
LLC TIMELY PREFETCHES:     703799 LATE PREFETCHES: 0 DROPPED PREFETCHES: 0
LLC PREFETCHES SAME FILL-ORIGIN LEVEL: 0 DIFFERENT FILL-ORIGIN LEVEL: 0
LLC AVERAGE MISS LATENCY: 786.545 cycles
LLC RQ	ACCESS:   91218330	FORWARD:          0	MERGED:          0	TO_CACHE:   91218330
LLC WQ	ACCESS:     550680	FORWARD:          0	MERGED:          0	TO_CACHE:     550680
LLC PQ	ACCESS:   17855863	FORWARD:          0	MERGED:          0	TO_CACHE:   17855863

LLC Dense regions hint to LLC: 0

RAW hits: 24
Loads Generated: 77353169
Loads sent to L1D: 77353144
Stores Generated: 3300913
Stores sent to L1D: 3300913
Major fault: 0 Minor fault: 34900
Allocated PAGES: 139600

CPU 2 cumulative IPC: 0.0641792 instructions: 200000001 cycles: 3116274754
ITLB TOTAL     ACCESS:   59899233  HIT:   59899233  MISS:          0  HIT %:        100  MISS %:          0   MPKI: 0
ITLB LOAD TRANSLATION ACCESS:   59899233  HIT:   59899233  MISS:          0  HIT %:        100  MISS %:          0   MPKI: 0
ITLB PREFETCH  REQUESTED:          0  ISSUED:          0  USEFUL:          0  USELESS:          0
ITLB USEFUL LOAD PREFETCHES:          0 PREFETCH ISSUED TO LOWER LEVEL:          0  ACCURACY: -nan
ITLB TIMELY PREFETCHES:          0 LATE PREFETCHES: 0 DROPPED PREFETCHES: 0
ITLB PREFETCHES SAME FILL-ORIGIN LEVEL: 0 DIFFERENT FILL-ORIGIN LEVEL: 0
ITLB AVERAGE MISS LATENCY: -nan cycles
ITLB RQ	ACCESS:   61682052	FORWARD:          0	MERGED:    1138889	TO_CACHE:   60543163

DTLB TOTAL     ACCESS:   67452732  HIT:   44565541  MISS:   22887191  HIT %:    66.0693  MISS %:    33.9307   MPKI: 114.436
DTLB LOAD TRANSLATION ACCESS:   67452732  HIT:   44565541  MISS:   22887191  HIT %:    66.0693  MISS %:    33.9307   MPKI: 114.436
DTLB PREFETCH  REQUESTED:          0  ISSUED:          0  USEFUL:          0  USELESS:          0
DTLB USEFUL LOAD PREFETCHES:          0 PREFETCH ISSUED TO LOWER LEVEL:          0  ACCURACY: -nan
DTLB TIMELY PREFETCHES:          0 LATE PREFETCHES: 0 DROPPED PREFETCHES: 0
DTLB PREFETCHES SAME FILL-ORIGIN LEVEL: 0 DIFFERENT FILL-ORIGIN LEVEL: 0
DTLB AVERAGE MISS LATENCY: 9.23636 cycles
DTLB RQ	ACCESS:   68965203	FORWARD:          0	MERGED:     766760	TO_CACHE:   68198443

STLB TOTAL     ACCESS:   49644041  HIT:   49603177  MISS:      40864  HIT %:    99.9177  MISS %:   0.082314   MPKI: 0.20432
STLB LOAD TRANSLATION ACCESS:   22887191  HIT:   22861654  MISS:      25537  HIT %:    99.8884  MISS %:   0.111578   MPKI: 0.127685
STLB TRANSLATION FROM L1D PREFETCHER ACCESS:   26756850  HIT:   26741523  MISS:      15327  HIT %:    99.9427  MISS %:  0.0572825   MPKI: 0.076635
STLB PREFETCH  REQUESTED:          0  ISSUED:          0  USEFUL:      15735  USELESS:          0
STLB USEFUL LOAD PREFETCHES:      15735 PREFETCH ISSUED TO LOWER LEVEL:          0  ACCURACY: inf
STLB TIMELY PREFETCHES:      15735 LATE PREFETCHES: 4254 DROPPED PREFETCHES: 1651123
STLB PREFETCHES SAME FILL-ORIGIN LEVEL: 0 DIFFERENT FILL-ORIGIN LEVEL: 0
STLB AVERAGE MISS LATENCY: 94.1656 cycles
STLB RQ	ACCESS:  192492639	FORWARD:          0	MERGED:  140585415	TO_CACHE:   51907224

STLB Hit, L1D data hit: 0
STLB Hit, L2C data hit: 0
STLB Hit, LLC data hit: 0
STLB Hit, LLC data miss: 0
STLB STLB hints to L2: 0
L1D TOTAL     ACCESS:  205446577  HIT:  170847084  MISS:   34599493  HIT %:    83.1589  MISS %:    16.8411   MPKI: 172.997
L1D LOAD      ACCESS:   64807483  HIT:   32805201  MISS:   32002282  HIT %:    50.6195  MISS %:    49.3805   MPKI: 160.011
L1D RFO       ACCESS:    2397486  HIT:    2331928  MISS:      65558  HIT %:    97.2656  MISS %:    2.73445   MPKI: 0.32779
L1D PREFETCH  ACCESS:  138241608  HIT:  135709955  MISS:    2531653  HIT %:    98.1687  MISS %:    1.83132   MPKI: 12.6583
L1D PREFETCH  REQUESTED:  358147590  ISSUED:  357360959  USEFUL:    2489403  USELESS:      68584
L1D USEFUL LOAD PREFETCHES:    2489403 PREFETCH ISSUED TO LOWER LEVEL:   21676359  ACCURACY: 11.4844
L1D TIMELY PREFETCHES:    2489403 LATE PREFETCHES: 22932 DROPPED PREFETCHES: 6021341
L1D PREFETCHES SAME FILL-ORIGIN LEVEL: 2580898 DIFFERENT FILL-ORIGIN LEVEL: 19095461
L1D AVERAGE MISS LATENCY: 84.1293 cycles
L1D RQ	ACCESS:   78191912	FORWARD:          0	MERGED:   12554423	TO_CACHE:   65637481
L1D WQ	ACCESS:    3327725	FORWARD:          8	MERGED:          3	TO_CACHE:    3327722
L1D PQ	ACCESS:  188025170	FORWARD:          0	MERGED:   18689381	TO_CACHE:  169335789

L1D UNIQUE REGIONS ACCESSED: 0
L1D REGIONS CONFLICTS: 0
L1D Cross Page Prefetch Requests: 18603878
L1D Same Page Prefetch Requests: 229129358
L1D ROI Sum of L1D PQ occupancy: 2201714177
L1D PREFETCHES PUSHED FROM L2C: 0
L1I TOTAL     ACCESS:   61024529  HIT:   61024506  MISS:         23  HIT %:        100  MISS %: 3.76898e-05   MPKI: 0.000115
L1I LOAD      ACCESS:   61024529  HIT:   61024506  MISS:         23  HIT %:        100  MISS %: 3.76898e-05   MPKI: 0.000115
L1I PREFETCH  REQUESTED:          0  ISSUED:          0  USEFUL:          0  USELESS:          0
L1I USEFUL LOAD PREFETCHES:          0 PREFETCH ISSUED TO LOWER LEVEL:          0  ACCURACY: -nan
L1I TIMELY PREFETCHES:          0 LATE PREFETCHES: 0 DROPPED PREFETCHES: 0
L1I PREFETCHES SAME FILL-ORIGIN LEVEL: 0 DIFFERENT FILL-ORIGIN LEVEL: 0
L1I AVERAGE MISS LATENCY: 296.913 cycles
L1I RQ	ACCESS:   72828286	FORWARD:          0	MERGED:   11146234	TO_CACHE:   61682052

BTB TOTAL     ACCESS:   37026664  HIT:   37026495  MISS:        169  HIT %:    99.9995  MISS %: 0.000456428   MPKI: 0.000845
BTB BRANCH_DIRECT_JUMP	ACCESS:         66  HIT:         33  MISS:         33
BTB BRANCH_INDIRECT	ACCESS:          4  HIT:          0  MISS:          4
BTB BRANCH_CONDITIONAL	ACCESS:   37026528  HIT:   37026442  MISS:         86
BTB BRANCH_DIRECT_CALL	ACCESS:         28  HIT:         10  MISS:         18
BTB BRANCH_INDIRECT_CALL	ACCESS:          5  HIT:          1  MISS:          4
BTB BRANCH_RETURN	ACCESS:         33  HIT:          9  MISS:         24
BTB BRANCH_OTHER ACCESS:          0  HIT:          0  MISS:          0

L2C TOTAL     ACCESS:   52900341  HIT:   25845377  MISS:   27054964  HIT %:    48.8567  MISS %:    51.1433   MPKI: 135.275
L2C LOAD      ACCESS:   31979372  HIT:    9355440  MISS:   22623932  HIT %:    29.2546  MISS %:    70.7454   MPKI: 113.12
L2C DATA LOAD MPKI: 113.12
L2C INSTRUCTION LOAD MPKI: 0.000115
L2C RFO       ACCESS:      65558  HIT:        218  MISS:      65340  HIT %:    0.33253  MISS %:    99.6675   MPKI: 0.3267
L2C PREFETCH  ACCESS:   19009155  HIT:   14679733  MISS:    4329422  HIT %:    77.2245  MISS %:    22.7755   MPKI: 21.6471
L2C DATA PREFETCH MPKI: 21.6471
L2C INSTRUCTION PREFETCH MPKI: 0
L2C WRITEBACK ACCESS:     149958  HIT:     121177  MISS:      28781  HIT %:    80.8073  MISS %:    19.1927   MPKI: 0.143905
L2C LOAD TRANSLATION ACCESS:      25521  HIT:      25263  MISS:        258  HIT %:    98.9891  MISS %:    1.01093   MPKI: 0.00129
L2C TRANSLATION FROM L1D PREFETCHER ACCESS:    1670777  HIT:    1663546  MISS:       7231  HIT %:    99.5672  MISS %:   0.432793   MPKI: 0.036155
L2C PREFETCH  REQUESTED:          0  ISSUED:          0  USEFUL:     471276  USELESS:    3901020
L2C USEFUL LOAD PREFETCHES:     471276 PREFETCH ISSUED TO LOWER LEVEL:    4448798  ACCURACY: 10.5933
L2C TIMELY PREFETCHES:     471276 LATE PREFETCHES: 83977 DROPPED PREFETCHES: 0
L2C PREFETCHES SAME FILL-ORIGIN LEVEL: 2841721 DIFFERENT FILL-ORIGIN LEVEL: 0
L2C AVERAGE MISS LATENCY: 109.472 cycles
L2C RQ	ACCESS:   34101247	FORWARD:          0	MERGED:          0	TO_CACHE:   34101246
L2C WQ	ACCESS:     150960	FORWARD:          1	MERGED:          0	TO_CACHE:     150960
L2C PQ	ACCESS:   21675707	FORWARD:          0	MERGED:      39080	TO_CACHE:   21636627

L2C Instructions Evicting Data 23
L2C Translations Evicting Data 7568
L2C Data Evicting Data 27300415
L2C Instructions Evicting Instructions 0
L2C Translations Evicting Instructions 0
L2C Data Evicting Instructions 22
L2C Instructions Evicting Translations 0
L2C Translations Evicting Translations 1
L2C Data Evicting Translations 7544
L2C Dense regions hint from L2: 0
PSCL5 TOTAL     ACCESS:    1696212  HIT:    1696212  MISS:          0  HIT %:        100  MISS %:          0   MPKI: 0
PSCL5 LOAD TRANSLATION ACCESS:      25510  HIT:      25510  MISS:          0  HIT %:        100  MISS %:          0   MPKI: 0
PSCL5 TRANSLATION FROM L1D PREFETCHER ACCESS:    1670702  HIT:    1670702  MISS:          0  HIT %:        100  MISS %:          0   MPKI: 0
PSCL5 PREFETCH  REQUESTED:          0  ISSUED:          0  USEFUL:          0  USELESS:          0
PSCL5 USEFUL LOAD PREFETCHES:          0 PREFETCH ISSUED TO LOWER LEVEL:          0  ACCURACY: -nan
PSCL5 TIMELY PREFETCHES:          0 LATE PREFETCHES: 0 DROPPED PREFETCHES: 0
PSCL5 PREFETCHES SAME FILL-ORIGIN LEVEL: 0 DIFFERENT FILL-ORIGIN LEVEL: 0

PSCL4 TOTAL     ACCESS:    1696212  HIT:    1696212  MISS:          0  HIT %:        100  MISS %:          0   MPKI: 0
PSCL4 LOAD TRANSLATION ACCESS:      25510  HIT:      25510  MISS:          0  HIT %:        100  MISS %:          0   MPKI: 0
PSCL4 TRANSLATION FROM L1D PREFETCHER ACCESS:    1670702  HIT:    1670702  MISS:          0  HIT %:        100  MISS %:          0   MPKI: 0
PSCL4 PREFETCH  REQUESTED:          0  ISSUED:          0  USEFUL:          0  USELESS:          0
PSCL4 USEFUL LOAD PREFETCHES:          0 PREFETCH ISSUED TO LOWER LEVEL:          0  ACCURACY: -nan
PSCL4 TIMELY PREFETCHES:          0 LATE PREFETCHES: 0 DROPPED PREFETCHES: 0
PSCL4 PREFETCHES SAME FILL-ORIGIN LEVEL: 0 DIFFERENT FILL-ORIGIN LEVEL: 0

PSCL3 TOTAL     ACCESS:    1696212  HIT:    1696212  MISS:          0  HIT %:        100  MISS %:          0   MPKI: 0
PSCL3 LOAD TRANSLATION ACCESS:      25510  HIT:      25510  MISS:          0  HIT %:        100  MISS %:          0   MPKI: 0
PSCL3 TRANSLATION FROM L1D PREFETCHER ACCESS:    1670702  HIT:    1670702  MISS:          0  HIT %:        100  MISS %:          0   MPKI: 0
PSCL3 PREFETCH  REQUESTED:          0  ISSUED:          0  USEFUL:          0  USELESS:          0
PSCL3 USEFUL LOAD PREFETCHES:          0 PREFETCH ISSUED TO LOWER LEVEL:          0  ACCURACY: -nan
PSCL3 TIMELY PREFETCHES:          0 LATE PREFETCHES: 0 DROPPED PREFETCHES: 0
PSCL3 PREFETCHES SAME FILL-ORIGIN LEVEL: 0 DIFFERENT FILL-ORIGIN LEVEL: 0

PSCL2 TOTAL     ACCESS:    1693087  HIT:    1693003  MISS:         84  HIT %:     99.995  MISS %: 0.00496135   MPKI: 0.00042
PSCL2 LOAD TRANSLATION ACCESS:      25536  HIT:      25452  MISS:         84  HIT %:    99.6711  MISS %:   0.328947   MPKI: 0.00042
PSCL2 TRANSLATION FROM L1D PREFETCHER ACCESS:    1667551  HIT:    1667551  MISS:          0  HIT %:        100  MISS %:          0   MPKI: 0
PSCL2 PREFETCH  REQUESTED:          0  ISSUED:          0  USEFUL:          0  USELESS:          0
PSCL2 USEFUL LOAD PREFETCHES:          0 PREFETCH ISSUED TO LOWER LEVEL:          0  ACCURACY: -nan
PSCL2 TIMELY PREFETCHES:          0 LATE PREFETCHES: 0 DROPPED PREFETCHES: 0
PSCL2 PREFETCHES SAME FILL-ORIGIN LEVEL: 0 DIFFERENT FILL-ORIGIN LEVEL: 0

LLC TOTAL     ACCESS:   27162525  HIT:   16116571  MISS:   11045954  HIT %:    59.3338  MISS %:    40.6662   MPKI: 55.2298
LLC LOAD      ACCESS:   22540109  HIT:   15319995  MISS:    7220114  HIT %:    67.9677  MISS %:    32.0323   MPKI: 36.1006
LLC RFO       ACCESS:      65340  HIT:       4867  MISS:      60473  HIT %:    7.44873  MISS %:    92.5513   MPKI: 0.302365
LLC PREFETCH  ACCESS:    4413245  HIT:     663854  MISS:    3749391  HIT %:    15.0423  MISS %:    84.9577   MPKI: 18.747
LLC WRITEBACK ACCESS:     136342  HIT:     125841  MISS:      10501  HIT %:     92.298  MISS %:    7.70196   MPKI: 0.052505
LLC LOAD TRANSLATION ACCESS:        258  HIT:         19  MISS:        239  HIT %:    7.36434  MISS %:    92.6357   MPKI: 0.001195
LLC TRANSLATION FROM L1D PREFETCHER ACCESS:       7231  HIT:       1995  MISS:       5236  HIT %:    27.5895  MISS %:    72.4105   MPKI: 0.02618
LLC PREFETCH  REQUESTED:          0  ISSUED:          0  USEFUL:     703799  USELESS:   14349884
LLC USEFUL LOAD PREFETCHES:     703799 PREFETCH ISSUED TO LOWER LEVEL:   15040035  ACCURACY: 4.6795
LLC TIMELY PREFETCHES:     703799 LATE PREFETCHES: 0 DROPPED PREFETCHES: 0
LLC PREFETCHES SAME FILL-ORIGIN LEVEL: 0 DIFFERENT FILL-ORIGIN LEVEL: 0
LLC AVERAGE MISS LATENCY: 766.775 cycles
LLC RQ	ACCESS:   91218330	FORWARD:          0	MERGED:          0	TO_CACHE:   91218330
LLC WQ	ACCESS:     550680	FORWARD:          0	MERGED:          0	TO_CACHE:     550680
LLC PQ	ACCESS:   17855863	FORWARD:          0	MERGED:          0	TO_CACHE:   17855863

LLC Dense regions hint to LLC: 0

RAW hits: 26
Loads Generated: 77353379
Loads sent to L1D: 77353353
Stores Generated: 3300532
Stores sent to L1D: 3300532
Major fault: 0 Minor fault: 34900
Allocated PAGES: 139600

CPU 3 cumulative IPC: 0.0641948 instructions: 200000000 cycles: 3115517939
ITLB TOTAL     ACCESS:   59900655  HIT:   59900655  MISS:          0  HIT %:        100  MISS %:          0   MPKI: 0
ITLB LOAD TRANSLATION ACCESS:   59900655  HIT:   59900655  MISS:          0  HIT %:        100  MISS %:          0   MPKI: 0
ITLB PREFETCH  REQUESTED:          0  ISSUED:          0  USEFUL:          0  USELESS:          0
ITLB USEFUL LOAD PREFETCHES:          0 PREFETCH ISSUED TO LOWER LEVEL:          0  ACCURACY: -nan
ITLB TIMELY PREFETCHES:          0 LATE PREFETCHES: 0 DROPPED PREFETCHES: 0
ITLB PREFETCHES SAME FILL-ORIGIN LEVEL: 0 DIFFERENT FILL-ORIGIN LEVEL: 0
ITLB AVERAGE MISS LATENCY: -nan cycles
ITLB RQ	ACCESS:   61699517	FORWARD:          0	MERGED:    1139209	TO_CACHE:   60560308

DTLB TOTAL     ACCESS:   67438637  HIT:   44553000  MISS:   22885637  HIT %:    66.0645  MISS %:    33.9355   MPKI: 114.428
DTLB LOAD TRANSLATION ACCESS:   67438637  HIT:   44553000  MISS:   22885637  HIT %:    66.0645  MISS %:    33.9355   MPKI: 114.428
DTLB PREFETCH  REQUESTED:          0  ISSUED:          0  USEFUL:          0  USELESS:          0
DTLB USEFUL LOAD PREFETCHES:          0 PREFETCH ISSUED TO LOWER LEVEL:          0  ACCURACY: -nan
DTLB TIMELY PREFETCHES:          0 LATE PREFETCHES: 0 DROPPED PREFETCHES: 0
DTLB PREFETCHES SAME FILL-ORIGIN LEVEL: 0 DIFFERENT FILL-ORIGIN LEVEL: 0
DTLB AVERAGE MISS LATENCY: 9.24012 cycles
DTLB RQ	ACCESS:   68972380	FORWARD:          0	MERGED:     770334	TO_CACHE:   68202046

STLB TOTAL     ACCESS:   49405475  HIT:   49364610  MISS:      40865  HIT %:    99.9173  MISS %:  0.0827135   MPKI: 0.204325
STLB LOAD TRANSLATION ACCESS:   22885637  HIT:   22860089  MISS:      25548  HIT %:    99.8884  MISS %:   0.111633   MPKI: 0.12774
STLB TRANSLATION FROM L1D PREFETCHER ACCESS:   26519838  HIT:   26504521  MISS:      15317  HIT %:    99.9422  MISS %:  0.0577568   MPKI: 0.076585
STLB PREFETCH  REQUESTED:          0  ISSUED:          0  USEFUL:      15737  USELESS:          0
STLB USEFUL LOAD PREFETCHES:      15737 PREFETCH ISSUED TO LOWER LEVEL:          0  ACCURACY: inf
STLB TIMELY PREFETCHES:      15737 LATE PREFETCHES: 4249 DROPPED PREFETCHES: 1647837
STLB PREFETCHES SAME FILL-ORIGIN LEVEL: 0 DIFFERENT FILL-ORIGIN LEVEL: 0
STLB AVERAGE MISS LATENCY: 93.9106 cycles
STLB RQ	ACCESS:  191990181	FORWARD:          0	MERGED:  140309999	TO_CACHE:   51680182

STLB Hit, L1D data hit: 0
STLB Hit, L2C data hit: 0
STLB Hit, LLC data hit: 0
STLB Hit, LLC data miss: 0
STLB STLB hints to L2: 0
L1D TOTAL     ACCESS:  205145973  HIT:  170546526  MISS:   34599447  HIT %:    83.1342  MISS %:    16.8658   MPKI: 172.997
L1D LOAD      ACCESS:   64784984  HIT:   32772934  MISS:   32012050  HIT %:    50.5872  MISS %:    49.4128   MPKI: 160.06
L1D RFO       ACCESS:    2454357  HIT:    2388798  MISS:      65559  HIT %:    97.3289  MISS %:    2.67113   MPKI: 0.327795
L1D PREFETCH  ACCESS:  137906632  HIT:  135384794  MISS:    2521838  HIT %:    98.1713  MISS %:    1.82866   MPKI: 12.6092
L1D PREFETCH  REQUESTED:  356895612  ISSUED:  356379693  USEFUL:    2480117  USELESS:      68707
L1D USEFUL LOAD PREFETCHES:    2480117 PREFETCH ISSUED TO LOWER LEVEL:   21377805  ACCURACY: 11.6014
L1D TIMELY PREFETCHES:    2480117 LATE PREFETCHES: 23270 DROPPED PREFETCHES: 6002941
L1D PREFETCHES SAME FILL-ORIGIN LEVEL: 2572068 DIFFERENT FILL-ORIGIN LEVEL: 18805737
L1D AVERAGE MISS LATENCY: 84.2119 cycles
L1D RQ	ACCESS:   78212242	FORWARD:          0	MERGED:   12568233	TO_CACHE:   65644000
L1D WQ	ACCESS:    3328383	FORWARD:          9	MERGED:          3	TO_CACHE:    3328380
L1D PQ	ACCESS:  187551858	FORWARD:          0	MERGED:   18724023	TO_CACHE:  168827835

L1D UNIQUE REGIONS ACCESSED: 0
L1D REGIONS CONFLICTS: 0
L1D Cross Page Prefetch Requests: 18172896
L1D Same Page Prefetch Requests: 229032875
L1D ROI Sum of L1D PQ occupancy: 2194179751
L1D PREFETCHES PUSHED FROM L2C: 0
L1I TOTAL     ACCESS:   61025976  HIT:   61025953  MISS:         23  HIT %:        100  MISS %: 3.76889e-05   MPKI: 0.000115
L1I LOAD      ACCESS:   61025976  HIT:   61025953  MISS:         23  HIT %:        100  MISS %: 3.76889e-05   MPKI: 0.000115
L1I PREFETCH  REQUESTED:          0  ISSUED:          0  USEFUL:          0  USELESS:          0
L1I USEFUL LOAD PREFETCHES:          0 PREFETCH ISSUED TO LOWER LEVEL:          0  ACCURACY: -nan
L1I TIMELY PREFETCHES:          0 LATE PREFETCHES: 0 DROPPED PREFETCHES: 0
L1I PREFETCHES SAME FILL-ORIGIN LEVEL: 0 DIFFERENT FILL-ORIGIN LEVEL: 0
L1I AVERAGE MISS LATENCY: 219.565 cycles
L1I RQ	ACCESS:   72851594	FORWARD:          0	MERGED:   11152077	TO_CACHE:   61699517

BTB TOTAL     ACCESS:   37026577  HIT:   37026405  MISS:        172  HIT %:    99.9995  MISS %: 0.000464531   MPKI: 0.00086
BTB BRANCH_DIRECT_JUMP	ACCESS:         66  HIT:         33  MISS:         33
BTB BRANCH_INDIRECT	ACCESS:          4  HIT:          0  MISS:          4
BTB BRANCH_CONDITIONAL	ACCESS:   37026441  HIT:   37026352  MISS:         89
BTB BRANCH_DIRECT_CALL	ACCESS:         28  HIT:         10  MISS:         18
BTB BRANCH_INDIRECT_CALL	ACCESS:          5  HIT:          1  MISS:          4
BTB BRANCH_RETURN	ACCESS:         33  HIT:          9  MISS:         24
BTB BRANCH_OTHER ACCESS:          0  HIT:          0  MISS:          0

L2C TOTAL     ACCESS:   52607046  HIT:   25860560  MISS:   26746486  HIT %:     49.158  MISS %:     50.842   MPKI: 133.732
L2C LOAD      ACCESS:   31988803  HIT:    9648829  MISS:   22339974  HIT %:    30.1631  MISS %:    69.8369   MPKI: 111.7
L2C DATA LOAD MPKI: 111.7
L2C INSTRUCTION LOAD MPKI: 0.000115
L2C RFO       ACCESS:      65559  HIT:        334  MISS:      65225  HIT %:   0.509465  MISS %:    99.4905   MPKI: 0.326125
L2C PREFETCH  ACCESS:   18709714  HIT:   14386944  MISS:    4322770  HIT %:    76.8956  MISS %:    23.1044   MPKI: 21.6138
L2C DATA PREFETCH MPKI: 21.6138
L2C INSTRUCTION PREFETCH MPKI: 0
L2C WRITEBACK ACCESS:     149964  HIT:     139142  MISS:      10822  HIT %:    92.7836  MISS %:     7.2164   MPKI: 0.05411
L2C LOAD TRANSLATION ACCESS:      25528  HIT:      25271  MISS:        257  HIT %:    98.9933  MISS %:    1.00674   MPKI: 0.001285
L2C TRANSLATION FROM L1D PREFETCHER ACCESS:    1667478  HIT:    1660040  MISS:       7438  HIT %:    99.5539  MISS %:   0.446063   MPKI: 0.03719
L2C PREFETCH  REQUESTED:          0  ISSUED:          0  USEFUL:     478556  USELESS:    3888049
L2C USEFUL LOAD PREFETCHES:     478556 PREFETCH ISSUED TO LOWER LEVEL:    4443764  ACCURACY: 10.7692
L2C TIMELY PREFETCHES:     478556 LATE PREFETCHES: 84760 DROPPED PREFETCHES: 0
L2C PREFETCHES SAME FILL-ORIGIN LEVEL: 2814931 DIFFERENT FILL-ORIGIN LEVEL: 0
L2C AVERAGE MISS LATENCY: 110.149 cycles
L2C RQ	ACCESS:   34116311	FORWARD:          0	MERGED:          0	TO_CACHE:   34116311
L2C WQ	ACCESS:     150987	FORWARD:          0	MERGED:          0	TO_CACHE:     150987
L2C PQ	ACCESS:   21377592	FORWARD:          0	MERGED:      39897	TO_CACHE:   21337695

L2C Instructions Evicting Data 23
L2C Translations Evicting Data 7786
L2C Data Evicting Data 27013424
L2C Instructions Evicting Instructions 0
L2C Translations Evicting Instructions 0
L2C Data Evicting Instructions 22
L2C Instructions Evicting Translations 0
L2C Translations Evicting Translations 3
L2C Data Evicting Translations 7762
L2C Dense regions hint from L2: 0
PSCL5 TOTAL     ACCESS:    1692917  HIT:    1692917  MISS:          0  HIT %:        100  MISS %:          0   MPKI: 0
PSCL5 LOAD TRANSLATION ACCESS:      25517  HIT:      25517  MISS:          0  HIT %:        100  MISS %:          0   MPKI: 0
PSCL5 TRANSLATION FROM L1D PREFETCHER ACCESS:    1667400  HIT:    1667400  MISS:          0  HIT %:        100  MISS %:          0   MPKI: 0
PSCL5 PREFETCH  REQUESTED:          0  ISSUED:          0  USEFUL:          0  USELESS:          0
PSCL5 USEFUL LOAD PREFETCHES:          0 PREFETCH ISSUED TO LOWER LEVEL:          0  ACCURACY: -nan
PSCL5 TIMELY PREFETCHES:          0 LATE PREFETCHES: 0 DROPPED PREFETCHES: 0
PSCL5 PREFETCHES SAME FILL-ORIGIN LEVEL: 0 DIFFERENT FILL-ORIGIN LEVEL: 0

PSCL4 TOTAL     ACCESS:    1692917  HIT:    1692917  MISS:          0  HIT %:        100  MISS %:          0   MPKI: 0
PSCL4 LOAD TRANSLATION ACCESS:      25517  HIT:      25517  MISS:          0  HIT %:        100  MISS %:          0   MPKI: 0
PSCL4 TRANSLATION FROM L1D PREFETCHER ACCESS:    1667400  HIT:    1667400  MISS:          0  HIT %:        100  MISS %:          0   MPKI: 0
PSCL4 PREFETCH  REQUESTED:          0  ISSUED:          0  USEFUL:          0  USELESS:          0
PSCL4 USEFUL LOAD PREFETCHES:          0 PREFETCH ISSUED TO LOWER LEVEL:          0  ACCURACY: -nan
PSCL4 TIMELY PREFETCHES:          0 LATE PREFETCHES: 0 DROPPED PREFETCHES: 0
PSCL4 PREFETCHES SAME FILL-ORIGIN LEVEL: 0 DIFFERENT FILL-ORIGIN LEVEL: 0

PSCL3 TOTAL     ACCESS:    1692917  HIT:    1692917  MISS:          0  HIT %:        100  MISS %:          0   MPKI: 0
PSCL3 LOAD TRANSLATION ACCESS:      25517  HIT:      25517  MISS:          0  HIT %:        100  MISS %:          0   MPKI: 0
PSCL3 TRANSLATION FROM L1D PREFETCHER ACCESS:    1667400  HIT:    1667400  MISS:          0  HIT %:        100  MISS %:          0   MPKI: 0
PSCL3 PREFETCH  REQUESTED:          0  ISSUED:          0  USEFUL:          0  USELESS:          0
PSCL3 USEFUL LOAD PREFETCHES:          0 PREFETCH ISSUED TO LOWER LEVEL:          0  ACCURACY: -nan
PSCL3 TIMELY PREFETCHES:          0 LATE PREFETCHES: 0 DROPPED PREFETCHES: 0
PSCL3 PREFETCHES SAME FILL-ORIGIN LEVEL: 0 DIFFERENT FILL-ORIGIN LEVEL: 0

PSCL2 TOTAL     ACCESS:    1689952  HIT:    1689868  MISS:         84  HIT %:     99.995  MISS %: 0.00497056   MPKI: 0.00042
PSCL2 LOAD TRANSLATION ACCESS:      25543  HIT:      25459  MISS:         84  HIT %:    99.6711  MISS %:   0.328857   MPKI: 0.00042
PSCL2 TRANSLATION FROM L1D PREFETCHER ACCESS:    1664409  HIT:    1664409  MISS:          0  HIT %:        100  MISS %:          0   MPKI: 0
PSCL2 PREFETCH  REQUESTED:          0  ISSUED:          0  USEFUL:          0  USELESS:          0
PSCL2 USEFUL LOAD PREFETCHES:          0 PREFETCH ISSUED TO LOWER LEVEL:          0  ACCURACY: -nan
PSCL2 TIMELY PREFETCHES:          0 LATE PREFETCHES: 0 DROPPED PREFETCHES: 0
PSCL2 PREFETCHES SAME FILL-ORIGIN LEVEL: 0 DIFFERENT FILL-ORIGIN LEVEL: 0

LLC TOTAL     ACCESS:   26872446  HIT:   15824594  MISS:   11047852  HIT %:    58.8878  MISS %:    41.1122   MPKI: 55.2393
LLC LOAD      ACCESS:   22255361  HIT:   14997043  MISS:    7258318  HIT %:    67.3862  MISS %:    32.6138   MPKI: 36.2916
LLC RFO       ACCESS:      65225  HIT:       8528  MISS:      56697  HIT %:    13.0747  MISS %:    86.9253   MPKI: 0.283485
LLC PREFETCH  ACCESS:    4407383  HIT:     688820  MISS:    3718563  HIT %:    15.6288  MISS %:    84.3712   MPKI: 18.5928
LLC WRITEBACK ACCESS:     136782  HIT:     127984  MISS:       8798  HIT %:    93.5679  MISS %:    6.43213   MPKI: 0.04399
LLC LOAD TRANSLATION ACCESS:        257  HIT:         21  MISS:        236  HIT %:    8.17121  MISS %:    91.8288   MPKI: 0.00118
LLC TRANSLATION FROM L1D PREFETCHER ACCESS:       7438  HIT:       2198  MISS:       5240  HIT %:     29.551  MISS %:     70.449   MPKI: 0.0262
LLC PREFETCH  REQUESTED:          0  ISSUED:          0  USEFUL:     703799  USELESS:   14349884
LLC USEFUL LOAD PREFETCHES:     703799 PREFETCH ISSUED TO LOWER LEVEL:   15040035  ACCURACY: 4.6795
LLC TIMELY PREFETCHES:     703799 LATE PREFETCHES: 0 DROPPED PREFETCHES: 0
LLC PREFETCHES SAME FILL-ORIGIN LEVEL: 0 DIFFERENT FILL-ORIGIN LEVEL: 0
LLC AVERAGE MISS LATENCY: 766.643 cycles
LLC RQ	ACCESS:   91218330	FORWARD:          0	MERGED:          0	TO_CACHE:   91218330
LLC WQ	ACCESS:     550680	FORWARD:          0	MERGED:          0	TO_CACHE:     550680
LLC PQ	ACCESS:   17855863	FORWARD:          0	MERGED:          0	TO_CACHE:   17855863

LLC Dense regions hint to LLC: 0

RAW hits: 24
Loads Generated: 77353336
Loads sent to L1D: 77353311
Stores Generated: 3300603
Stores sent to L1D: 3300603
Major fault: 0 Minor fault: 34900
Allocated PAGES: 139600

DRAM Statistics
 CHANNEL 0
 RQ ROW_BUFFER_HIT:    3588399  ROW_BUFFER_MISS:   40940262
 DBUS_CONGESTED:       9748
 WQ ROW_BUFFER_HIT:     143614  ROW_BUFFER_MISS:     404132  FULL:          0

 AVG_CONGESTED_CYCLE: 4
 All warmup complete: 5
Channel 0 Bank busy for read cycles: 0
Channel 0 Bank busy for write cycles: 0
Channel 0
Rank 0
0banks busy for read cycles: 121706823
0banks busy for write cycles: 104470
1banks busy for read cycles: 914011781
1banks busy for write cycles: 62551610
2banks busy for read cycles: 1073764020
2banks busy for write cycles: 29959654
3banks busy for read cycles: 583867040
3banks busy for write cycles: 14760841
4banks busy for read cycles: 201734995
4banks busy for write cycles: 7662433
5banks busy for read cycles: 64355108
5banks busy for write cycles: 4359156
6banks busy for read cycles: 25361872
6banks busy for write cycles: 2830650
7banks busy for read cycles: 14478540
7banks busy for write cycles: 2959426
8banks busy for read cycles: 16552209
8banks busy for write cycles: 10380951

CPU 0 Branch Prediction Accuracy: 96.9579% MPKI: 5.62532 Average ROB Occupancy at Mispredict: 139.729
Branch types
NOT_BRANCH: 162973604 81.4868%
BRANCH_DIRECT_JUMP: 66 3.3e-05%
BRANCH_INDIRECT: 4 2e-06%
BRANCH_CONDITIONAL: 37026571 18.5133%
BRANCH_DIRECT_CALL: 28 1.4e-05%
BRANCH_INDIRECT_CALL: 5 2.5e-06%
BRANCH_RETURN: 33 1.65e-05%
BRANCH_OTHER: 0 0%


CPU 1 Branch Prediction Accuracy: 96.9576% MPKI: 5.63087 Average ROB Occupancy at Mispredict: 139.683
Branch types
NOT_BRANCH: 166322993 81.4746%
BRANCH_DIRECT_JUMP: 66 3.23306e-05%
BRANCH_INDIRECT: 4 1.95943e-06%
BRANCH_CONDITIONAL: 37817882 18.5254%
BRANCH_DIRECT_CALL: 28 1.3716e-05%
BRANCH_INDIRECT_CALL: 5 2.44929e-06%
BRANCH_RETURN: 33 1.61653e-05%
BRANCH_OTHER: 0 0%


CPU 2 Branch Prediction Accuracy: 96.9549% MPKI: 5.63773 Average ROB Occupancy at Mispredict: 139.734
Branch types
NOT_BRANCH: 164699557 81.4812%
BRANCH_DIRECT_JUMP: 66 3.26519e-05%
BRANCH_INDIRECT: 4 1.9789e-06%
BRANCH_CONDITIONAL: 37432396 18.5188%
BRANCH_DIRECT_CALL: 28 1.38523e-05%
BRANCH_INDIRECT_CALL: 5 2.47363e-06%
BRANCH_RETURN: 33 1.6326e-05%
BRANCH_OTHER: 0 0%


CPU 3 Branch Prediction Accuracy: 96.9549% MPKI: 5.63929 Average ROB Occupancy at Mispredict: 139.7
Branch types
NOT_BRANCH: 164741173 81.4809%
BRANCH_DIRECT_JUMP: 66 3.26436e-05%
BRANCH_INDIRECT: 4 1.9784e-06%
BRANCH_CONDITIONAL: 37442192 18.5189%
BRANCH_DIRECT_CALL: 28 1.38488e-05%
BRANCH_INDIRECT_CALL: 5 2.473e-06%
BRANCH_RETURN: 33 1.63218e-05%
BRANCH_OTHER: 0 0%

DRAM PAGES: 1048576
Allocated PAGES: 139600
