
*** ChampSim Multicore Out-of-Order Simulator ***

Warmup Instructions: 50000000
Simulation Instructions: 200000000
Number of CPUs: 4
LLC sets: 8192
LLC ways: 16
Off-chip DRAM Size: 4096 MB Channels: 1 Width: 64-bit Data Rate: 6400 MT/s
CPU 0 runs ./traces/spec/433.milc-337B.champsimtrace.xz
.xz
CPU 1 runs ./traces/ligra/ligra_Components-Shortcut.com-lj.ungraph.gcc_6.3.0_O3.drop_11500M.length_250M.champsimtrace.xz
.xz
CPU 2 runs ./traces/gap/pr-14.trace.gz
.gz
CPU 3 runs ./traces/ligra/ligra_BC.com-lj.ungraph.gcc_6.3.0_O3.drop_500M.length_250M.champsimtrace.xz
.xz
BTB has LRU replacement policy
ITLB has LRU replacement policy
DTLB has LRU replacement policy
STLB has LRU replacement policy
L1I has LRU replacement policy
History Sets: 8
History Ways: 16
BERTI Size: 16
BERTI Stride Size: 8
L1D has LRU replacement policy
Initialize SRRIP state for L2C
Initialize DRRIP state for LLC
BTB has LRU replacement policy
ITLB has LRU replacement policy
DTLB has LRU replacement policy
STLB has LRU replacement policy
L1I has LRU replacement policy
History Sets: 8
History Ways: 16
BERTI Size: 16
BERTI Stride Size: 8
L1D has LRU replacement policy
Initialize SRRIP state for L2C
Initialize DRRIP state for LLC
BTB has LRU replacement policy
ITLB has LRU replacement policy
DTLB has LRU replacement policy
STLB has LRU replacement policy
L1I has LRU replacement policy
History Sets: 8
History Ways: 16
BERTI Size: 16
BERTI Stride Size: 8
L1D has LRU replacement policy
Initialize SRRIP state for L2C
Initialize DRRIP state for LLC
BTB has LRU replacement policy
ITLB has LRU replacement policy
DTLB has LRU replacement policy
STLB has LRU replacement policy
L1I has LRU replacement policy
History Sets: 8
History Ways: 16
BERTI Size: 16
BERTI Stride Size: 8
L1D has LRU replacement policy
Initialize SRRIP state for L2C
Initialize DRRIP state for LLC
Heartbeat CPU 0 instructions: 10000001 cycles: 2585823 heartbeat IPC: 3.86724 cumulative IPC: 3.86724 (Simulation time: 0 hr 2 min 36 sec) 
Heartbeat CPU 1 instructions: 10000001 cycles: 2932836 heartbeat IPC: 3.40967 cumulative IPC: 3.40967 (Simulation time: 0 hr 2 min 58 sec) 
Heartbeat CPU 3 instructions: 10000002 cycles: 3333349 heartbeat IPC: 2.99999 cumulative IPC: 2.99999 (Simulation time: 0 hr 3 min 24 sec) 
Heartbeat CPU 2 instructions: 10000001 cycles: 3333489 heartbeat IPC: 2.99986 cumulative IPC: 2.99986 (Simulation time: 0 hr 3 min 24 sec) 
Heartbeat CPU 0 instructions: 20000002 cycles: 5171606 heartbeat IPC: 3.8673 cumulative IPC: 3.86727 (Simulation time: 0 hr 5 min 20 sec) 
Heartbeat CPU 1 instructions: 20000001 cycles: 5863994 heartbeat IPC: 3.41162 cumulative IPC: 3.41064 (Simulation time: 0 hr 6 min 3 sec) 
Heartbeat CPU 3 instructions: 20000002 cycles: 6666682 heartbeat IPC: 3 cumulative IPC: 2.99999 (Simulation time: 0 hr 6 min 54 sec) 
Heartbeat CPU 0 instructions: 30000001 cycles: 7757412 heartbeat IPC: 3.86727 cumulative IPC: 3.86727 (Simulation time: 0 hr 8 min 7 sec) 
Heartbeat CPU 1 instructions: 30000000 cycles: 8795879 heartbeat IPC: 3.41077 cumulative IPC: 3.41069 (Simulation time: 0 hr 9 min 15 sec) 
Heartbeat CPU 2 instructions: 20000001 cycles: 9501740 heartbeat IPC: 1.62121 cumulative IPC: 2.10488 (Simulation time: 0 hr 10 min 2 sec) 
Heartbeat CPU 3 instructions: 30000002 cycles: 10000015 heartbeat IPC: 3 cumulative IPC: 3 (Simulation time: 0 hr 10 min 35 sec) 
Heartbeat CPU 0 instructions: 40000001 cycles: 10343077 heartbeat IPC: 3.86748 cumulative IPC: 3.86732 (Simulation time: 0 hr 10 min 57 sec) 
Heartbeat CPU 1 instructions: 40000001 cycles: 11728336 heartbeat IPC: 3.41011 cumulative IPC: 3.41054 (Simulation time: 0 hr 12 min 30 sec) 
Heartbeat CPU 0 instructions: 50000000 cycles: 12928904 heartbeat IPC: 3.86723 cumulative IPC: 3.8673 (Simulation time: 0 hr 13 min 53 sec) 
Heartbeat CPU 3 instructions: 40000000 cycles: 13333348 heartbeat IPC: 3 cumulative IPC: 3 (Simulation time: 0 hr 14 min 19 sec) 
Heartbeat CPU 1 instructions: 50000000 cycles: 14658554 heartbeat IPC: 3.41271 cumulative IPC: 3.41098 (Simulation time: 0 hr 15 min 40 sec) 
Heartbeat CPU 0 instructions: 60000001 cycles: 16031468 heartbeat IPC: 3.22314 cumulative IPC: 0.623773 (Simulation time: 0 hr 16 min 56 sec) 
Heartbeat CPU 2 instructions: 30000003 cycles: 16150959 heartbeat IPC: 1.50394 cumulative IPC: 1.85748 (Simulation time: 0 hr 17 min 2 sec) 
Heartbeat CPU 3 instructions: 50000002 cycles: 16666681 heartbeat IPC: 3 cumulative IPC: 3 (Simulation time: 0 hr 17 min 31 sec) 
Heartbeat CPU 1 instructions: 60000000 cycles: 18436210 heartbeat IPC: 2.64714 cumulative IPC: 0.542411 (Simulation time: 0 hr 19 min 4 sec) 
Heartbeat CPU 0 instructions: 70000001 cycles: 18629305 heartbeat IPC: 3.84936 cumulative IPC: 1.07358 (Simulation time: 0 hr 19 min 15 sec) 
Heartbeat CPU 3 instructions: 60000000 cycles: 20063912 heartbeat IPC: 2.94357 cumulative IPC: 0.498407 (Simulation time: 0 hr 20 min 35 sec) 
Heartbeat CPU 0 instructions: 80000001 cycles: 21210336 heartbeat IPC: 3.87442 cumulative IPC: 1.4144 (Simulation time: 0 hr 21 min 35 sec) 
Heartbeat CPU 1 instructions: 70000000 cycles: 22177701 heartbeat IPC: 2.67273 cumulative IPC: 0.901807 (Simulation time: 0 hr 22 min 28 sec) 
Heartbeat CPU 2 instructions: 40000003 cycles: 22790853 heartbeat IPC: 1.50605 cumulative IPC: 1.75509 (Simulation time: 0 hr 23 min 2 sec) 
Heartbeat CPU 3 instructions: 70000000 cycles: 23467479 heartbeat IPC: 2.93809 cumulative IPC: 0.852243 (Simulation time: 0 hr 23 min 40 sec) 
Heartbeat CPU 0 instructions: 90000002 cycles: 23781586 heartbeat IPC: 3.88916 cumulative IPC: 1.68197 (Simulation time: 0 hr 23 min 57 sec) 
Heartbeat CPU 1 instructions: 80000001 cycles: 25928838 heartbeat IPC: 2.66586 cumulative IPC: 1.15701 (Simulation time: 0 hr 25 min 59 sec) 
Heartbeat CPU 0 instructions: 100000002 cycles: 26352859 heartbeat IPC: 3.88912 cumulative IPC: 1.89733 (Simulation time: 0 hr 26 min 23 sec) 
Heartbeat CPU 3 instructions: 80000001 cycles: 26875724 heartbeat IPC: 2.93406 cumulative IPC: 1.11625 (Simulation time: 0 hr 26 min 51 sec) 
Heartbeat CPU 0 instructions: 110000000 cycles: 28924134 heartbeat IPC: 3.88912 cumulative IPC: 2.07439 (Simulation time: 0 hr 28 min 48 sec) 
Heartbeat CPU 2 instructions: 50000000 cycles: 29443748 heartbeat IPC: 1.5031 cumulative IPC: 1.69815 (Simulation time: 0 hr 29 min 17 sec) 

Warmup complete CPU 0 instructions: 112020922 cycles: 29443752 (Simulation time: 0 hr 29 min 17 sec) 
Warmup complete CPU 1 instructions: 89333768 cycles: 29443752 (Simulation time: 0 hr 29 min 17 sec) 
Warmup complete CPU 2 instructions: 50000004 cycles: 29443752 (Simulation time: 0 hr 29 min 17 sec) 
Warmup complete CPU 3 instructions: 87521375 cycles: 29443751 (Simulation time: 0 hr 29 min 17 sec) 

Heartbeat CPU 1 instructions: 90000002 cycles: 30212632 heartbeat IPC: 2.33438 cumulative IPC: 0.866499 (Simulation time: 0 hr 29 min 35 sec) 
Heartbeat CPU 3 instructions: 90000002 cycles: 31587802 heartbeat IPC: 2.12221 cumulative IPC: 1.15605 (Simulation time: 0 hr 30 min 4 sec) 
Heartbeat CPU 0 instructions: 120000003 cycles: 35601180 heartbeat IPC: 1.49767 cumulative IPC: 1.29585 (Simulation time: 0 hr 31 min 29 sec) 
Heartbeat CPU 3 instructions: 100000003 cycles: 40173604 heartbeat IPC: 1.16471 cumulative IPC: 1.16298 (Simulation time: 0 hr 33 min 8 sec) 
Heartbeat CPU 1 instructions: 100000002 cycles: 42198778 heartbeat IPC: 0.834297 cumulative IPC: 0.836238 (Simulation time: 0 hr 33 min 51 sec) 
Heartbeat CPU 0 instructions: 130000002 cycles: 44873876 heartbeat IPC: 1.07843 cumulative IPC: 1.16519 (Simulation time: 0 hr 34 min 44 sec) 
Heartbeat CPU 3 instructions: 110000000 cycles: 49154088 heartbeat IPC: 1.11353 cumulative IPC: 1.14045 (Simulation time: 0 hr 36 min 10 sec) 
Heartbeat CPU 0 instructions: 140000003 cycles: 53462853 heartbeat IPC: 1.16428 cumulative IPC: 1.16487 (Simulation time: 0 hr 37 min 36 sec) 
Heartbeat CPU 1 instructions: 110000000 cycles: 54259959 heartbeat IPC: 0.829106 cumulative IPC: 0.832772 (Simulation time: 0 hr 37 min 52 sec) 
Heartbeat CPU 3 instructions: 120000003 cycles: 58106537 heartbeat IPC: 1.11701 cumulative IPC: 1.13313 (Simulation time: 0 hr 39 min 11 sec) 
Heartbeat CPU 0 instructions: 150000003 cycles: 61719403 heartbeat IPC: 1.21116 cumulative IPC: 1.17671 (Simulation time: 0 hr 40 min 22 sec) 
Heartbeat CPU 1 instructions: 120000001 cycles: 66129779 heartbeat IPC: 0.842473 cumulative IPC: 0.83591 (Simulation time: 0 hr 41 min 47 sec) 
Heartbeat CPU 3 instructions: 130000002 cycles: 67130507 heartbeat IPC: 1.10816 cumulative IPC: 1.12715 (Simulation time: 0 hr 42 min 6 sec) 
Heartbeat CPU 0 instructions: 160000001 cycles: 70023850 heartbeat IPC: 1.20417 cumulative IPC: 1.18233 (Simulation time: 0 hr 43 min 1 sec) 
Heartbeat CPU 3 instructions: 140000001 cycles: 76185861 heartbeat IPC: 1.10432 cumulative IPC: 1.12273 (Simulation time: 0 hr 45 min 6 sec) 
Heartbeat CPU 1 instructions: 130000002 cycles: 77865070 heartbeat IPC: 0.852131 cumulative IPC: 0.839842 (Simulation time: 0 hr 45 min 38 sec) 
Heartbeat CPU 0 instructions: 170000000 cycles: 78324038 heartbeat IPC: 1.20479 cumulative IPC: 1.18614 (Simulation time: 0 hr 45 min 47 sec) 
Heartbeat CPU 3 instructions: 150000002 cycles: 85210484 heartbeat IPC: 1.10808 cumulative IPC: 1.12036 (Simulation time: 0 hr 47 min 59 sec) 
Heartbeat CPU 0 instructions: 180000002 cycles: 86559668 heartbeat IPC: 1.21424 cumulative IPC: 1.1902 (Simulation time: 0 hr 48 min 24 sec) 
Heartbeat CPU 1 instructions: 140000000 cycles: 89934817 heartbeat IPC: 0.828518 cumulative IPC: 0.837582 (Simulation time: 0 hr 49 min 28 sec) 
Heartbeat CPU 3 instructions: 160000001 cycles: 94308397 heartbeat IPC: 1.09915 cumulative IPC: 1.11738 (Simulation time: 0 hr 50 min 54 sec) 
Heartbeat CPU 0 instructions: 190000001 cycles: 94709040 heartbeat IPC: 1.22709 cumulative IPC: 1.1948 (Simulation time: 0 hr 51 min 2 sec) 
Heartbeat CPU 1 instructions: 150000002 cycles: 102156137 heartbeat IPC: 0.818242 cumulative IPC: 0.834332 (Simulation time: 0 hr 53 min 25 sec) 
Heartbeat CPU 3 instructions: 170000001 cycles: 103418083 heartbeat IPC: 1.09773 cumulative IPC: 1.11496 (Simulation time: 0 hr 53 min 44 sec) 
Heartbeat CPU 0 instructions: 200000003 cycles: 104587114 heartbeat IPC: 1.01234 cumulative IPC: 1.17082 (Simulation time: 0 hr 54 min 2 sec) 
Heartbeat CPU 3 instructions: 180000000 cycles: 112120004 heartbeat IPC: 1.14917 cumulative IPC: 1.11856 (Simulation time: 0 hr 56 min 22 sec) 
Heartbeat CPU 1 instructions: 160000002 cycles: 114269368 heartbeat IPC: 0.825544 cumulative IPC: 0.833077 (Simulation time: 0 hr 57 min 4 sec) 
Heartbeat CPU 0 instructions: 210000003 cycles: 118728161 heartbeat IPC: 0.707161 cumulative IPC: 1.09738 (Simulation time: 0 hr 58 min 31 sec) 
Heartbeat CPU 3 instructions: 190000003 cycles: 120781857 heartbeat IPC: 1.15449 cumulative IPC: 1.12197 (Simulation time: 0 hr 59 min 11 sec) 
Heartbeat CPU 1 instructions: 170000003 cycles: 126358039 heartbeat IPC: 0.827221 cumulative IPC: 0.832346 (Simulation time: 1 hr 0 min 59 sec) 
Heartbeat CPU 3 instructions: 200000000 cycles: 129451069 heartbeat IPC: 1.15351 cumulative IPC: 1.1247 (Simulation time: 1 hr 1 min 57 sec) 
Heartbeat CPU 0 instructions: 220000000 cycles: 133261493 heartbeat IPC: 0.688073 cumulative IPC: 1.04008 (Simulation time: 1 hr 3 min 5 sec) 
Heartbeat CPU 3 instructions: 210000000 cycles: 138092812 heartbeat IPC: 1.15717 cumulative IPC: 1.12729 (Simulation time: 1 hr 4 min 38 sec) 
Heartbeat CPU 1 instructions: 180000002 cycles: 138559868 heartbeat IPC: 0.819549 cumulative IPC: 0.830915 (Simulation time: 1 hr 4 min 47 sec) 
Heartbeat CPU 3 instructions: 220000000 cycles: 146747895 heartbeat IPC: 1.15539 cumulative IPC: 1.12936 (Simulation time: 1 hr 7 min 23 sec) 
Heartbeat CPU 0 instructions: 230000001 cycles: 147782433 heartbeat IPC: 0.688661 cumulative IPC: 0.996961 (Simulation time: 1 hr 7 min 43 sec) 
Heartbeat CPU 1 instructions: 190000000 cycles: 150739203 heartbeat IPC: 0.821063 cumulative IPC: 0.829926 (Simulation time: 1 hr 8 min 40 sec) 
Heartbeat CPU 3 instructions: 230000001 cycles: 155637878 heartbeat IPC: 1.12486 cumulative IPC: 1.12904 (Simulation time: 1 hr 10 min 13 sec) 
Heartbeat CPU 1 instructions: 200000002 cycles: 162870383 heartbeat IPC: 0.824322 cumulative IPC: 0.829416 (Simulation time: 1 hr 12 min 21 sec) 
Heartbeat CPU 3 instructions: 240000000 cycles: 164624257 heartbeat IPC: 1.1128 cumulative IPC: 1.12796 (Simulation time: 1 hr 12 min 53 sec) 
*** Reached end of trace for Core: 3 Repeating trace: ./traces/ligra/ligra_BC.com-lj.ungraph.gcc_6.3.0_O3.drop_500M.length_250M.champsimtrace.xz
Heartbeat CPU 3 instructions: 250000003 cycles: 173533987 heartbeat IPC: 1.12237 cumulative IPC: 1.12762 (Simulation time: 1 hr 15 min 31 sec) 
Heartbeat CPU 0 instructions: 240000002 cycles: 173947807 heartbeat IPC: 0.382185 cumulative IPC: 0.885644 (Simulation time: 1 hr 15 min 38 sec) 
Heartbeat CPU 1 instructions: 210000002 cycles: 174918685 heartbeat IPC: 0.829992 cumulative IPC: 0.829464 (Simulation time: 1 hr 15 min 57 sec) 
Heartbeat CPU 3 instructions: 260000001 cycles: 182006923 heartbeat IPC: 1.18023 cumulative IPC: 1.13054 (Simulation time: 1 hr 18 min 6 sec) 
Heartbeat CPU 1 instructions: 220000000 cycles: 186937165 heartbeat IPC: 0.832052 cumulative IPC: 0.829662 (Simulation time: 1 hr 19 min 34 sec) 
Heartbeat CPU 3 instructions: 270000002 cycles: 190502982 heartbeat IPC: 1.17702 cumulative IPC: 1.13299 (Simulation time: 1 hr 20 min 37 sec) 
Heartbeat CPU 1 instructions: 230000002 cycles: 198985314 heartbeat IPC: 0.830003 cumulative IPC: 0.829686 (Simulation time: 1 hr 23 min 15 sec) 
Heartbeat CPU 3 instructions: 280000000 cycles: 199004629 heartbeat IPC: 1.17624 cumulative IPC: 1.13516 (Simulation time: 1 hr 23 min 15 sec) 
Heartbeat CPU 0 instructions: 250000001 cycles: 201699704 heartbeat IPC: 0.360336 cumulative IPC: 0.801012 (Simulation time: 1 hr 24 min 14 sec) 
Finished CPU 3 instructions: 200000000 cycles: 175922008 cumulative IPC: 1.13687 (Simulation time: 1 hr 25 min 34 sec) 
Heartbeat CPU 3 instructions: 290000002 cycles: 207465718 heartbeat IPC: 1.18188 cumulative IPC: 1.13738 (Simulation time: 1 hr 26 min 17 sec) 
Heartbeat CPU 0 instructions: 260000000 cycles: 209321690 heartbeat IPC: 1.31199 cumulative IPC: 0.822664 (Simulation time: 1 hr 26 min 53 sec) 
Heartbeat CPU 1 instructions: 240000001 cycles: 210803316 heartbeat IPC: 0.846167 cumulative IPC: 0.83076 (Simulation time: 1 hr 27 min 18 sec) 
Heartbeat CPU 3 instructions: 300000001 cycles: 215970917 heartbeat IPC: 1.17575 cumulative IPC: 1.13913 (Simulation time: 1 hr 29 min 5 sec) 
Heartbeat CPU 0 instructions: 270000001 cycles: 217502602 heartbeat IPC: 1.22236 cumulative IPC: 0.840051 (Simulation time: 1 hr 29 min 37 sec) 
*** Reached end of trace for Core: 1 Repeating trace: ./traces/ligra/ligra_Components-Shortcut.com-lj.ungraph.gcc_6.3.0_O3.drop_11500M.length_250M.champsimtrace.xz
Heartbeat CPU 1 instructions: 250000001 cycles: 222546633 heartbeat IPC: 0.851548 cumulative IPC: 0.832024 (Simulation time: 1 hr 31 min 23 sec) 
Heartbeat CPU 3 instructions: 310000002 cycles: 224482522 heartbeat IPC: 1.17487 cumulative IPC: 1.14069 (Simulation time: 1 hr 32 min 4 sec) 
Heartbeat CPU 0 instructions: 280000000 cycles: 225736216 heartbeat IPC: 1.21453 cumulative IPC: 0.855759 (Simulation time: 1 hr 32 min 30 sec) 
Heartbeat CPU 3 instructions: 320000003 cycles: 233011721 heartbeat IPC: 1.17244 cumulative IPC: 1.14202 (Simulation time: 1 hr 35 min 2 sec) 
Heartbeat CPU 0 instructions: 290000003 cycles: 233886414 heartbeat IPC: 1.22696 cumulative IPC: 0.870557 (Simulation time: 1 hr 35 min 21 sec) 
Heartbeat CPU 1 instructions: 260000002 cycles: 234398105 heartbeat IPC: 0.843777 cumulative IPC: 0.832704 (Simulation time: 1 hr 35 min 32 sec) 
Heartbeat CPU 3 instructions: 330000000 cycles: 241552707 heartbeat IPC: 1.17082 cumulative IPC: 1.14318 (Simulation time: 1 hr 38 min 1 sec) 
Heartbeat CPU 0 instructions: 300000002 cycles: 242059405 heartbeat IPC: 1.22354 cumulative IPC: 0.884126 (Simulation time: 1 hr 38 min 12 sec) 
Heartbeat CPU 1 instructions: 270000001 cycles: 246425115 heartbeat IPC: 0.831462 cumulative IPC: 0.832635 (Simulation time: 1 hr 39 min 42 sec) 
Heartbeat CPU 3 instructions: 340000001 cycles: 250105840 heartbeat IPC: 1.16916 cumulative IPC: 1.14419 (Simulation time: 1 hr 40 min 57 sec) 
Heartbeat CPU 0 instructions: 310000001 cycles: 250255821 heartbeat IPC: 1.22005 cumulative IPC: 0.896595 (Simulation time: 1 hr 41 min 0 sec) 
Finished CPU 0 instructions: 200000000 cycles: 222456296 cumulative IPC: 0.899053 (Simulation time: 1 hr 41 min 35 sec) 
Heartbeat CPU 1 instructions: 280000000 cycles: 258294556 heartbeat IPC: 0.8425 cumulative IPC: 0.833146 (Simulation time: 1 hr 43 min 48 sec) 
Heartbeat CPU 0 instructions: 320000002 cycles: 258387331 heartbeat IPC: 1.22978 cumulative IPC: 0.908429 (Simulation time: 1 hr 43 min 50 sec) 
Heartbeat CPU 3 instructions: 350000000 cycles: 258590963 heartbeat IPC: 1.17853 cumulative IPC: 1.14546 (Simulation time: 1 hr 43 min 54 sec) 
Heartbeat CPU 3 instructions: 360000000 cycles: 267072043 heartbeat IPC: 1.1791 cumulative IPC: 1.14666 (Simulation time: 1 hr 46 min 45 sec) 
Heartbeat CPU 0 instructions: 330000000 cycles: 268988368 heartbeat IPC: 0.943304 cumulative IPC: 0.909973 (Simulation time: 1 hr 47 min 21 sec) 
Finished CPU 1 instructions: 200000002 cycles: 239863532 cumulative IPC: 0.833807 (Simulation time: 1 hr 47 min 27 sec) 
Heartbeat CPU 1 instructions: 290000001 cycles: 270070355 heartbeat IPC: 0.849199 cumulative IPC: 0.833932 (Simulation time: 1 hr 47 min 43 sec) 
Heartbeat CPU 3 instructions: 370000001 cycles: 275537278 heartbeat IPC: 1.1813 cumulative IPC: 1.14785 (Simulation time: 1 hr 49 min 30 sec) 
Heartbeat CPU 0 instructions: 340000003 cycles: 278253551 heartbeat IPC: 1.07931 cumulative IPC: 0.916279 (Simulation time: 1 hr 50 min 25 sec) 
Heartbeat CPU 1 instructions: 300000000 cycles: 281815136 heartbeat IPC: 0.851442 cumulative IPC: 0.834747 (Simulation time: 1 hr 51 min 36 sec) 
Heartbeat CPU 3 instructions: 380000001 cycles: 284065479 heartbeat IPC: 1.17258 cumulative IPC: 1.14868 (Simulation time: 1 hr 52 min 21 sec) 
Heartbeat CPU 0 instructions: 350000000 cycles: 287365948 heartbeat IPC: 1.09741 cumulative IPC: 0.922678 (Simulation time: 1 hr 53 min 24 sec) 
Heartbeat CPU 3 instructions: 390000000 cycles: 292640180 heartbeat IPC: 1.16622 cumulative IPC: 1.14925 (Simulation time: 1 hr 55 min 9 sec) 
Heartbeat CPU 1 instructions: 310000000 cycles: 293753497 heartbeat IPC: 0.837636 cumulative IPC: 0.834877 (Simulation time: 1 hr 55 min 32 sec) 
Heartbeat CPU 0 instructions: 360000003 cycles: 296463676 heartbeat IPC: 1.09918 cumulative IPC: 0.928691 (Simulation time: 1 hr 56 min 27 sec) 
Heartbeat CPU 3 instructions: 400000001 cycles: 301235454 heartbeat IPC: 1.16343 cumulative IPC: 1.1497 (Simulation time: 1 hr 58 min 3 sec) 
Heartbeat CPU 0 instructions: 370000000 cycles: 305489543 heartbeat IPC: 1.10793 cumulative IPC: 0.934552 (Simulation time: 1 hr 59 min 28 sec) 
Heartbeat CPU 1 instructions: 320000000 cycles: 305556188 heartbeat IPC: 0.847264 cumulative IPC: 0.835407 (Simulation time: 1 hr 59 min 29 sec) 
Heartbeat CPU 3 instructions: 410000000 cycles: 309886475 heartbeat IPC: 1.15593 cumulative IPC: 1.14989 (Simulation time: 2 hr 0 min 55 sec) 
Heartbeat CPU 0 instructions: 380000002 cycles: 314462638 heartbeat IPC: 1.11444 cumulative IPC: 0.940215 (Simulation time: 2 hr 2 min 27 sec) 
Heartbeat CPU 1 instructions: 330000000 cycles: 317411185 heartbeat IPC: 0.843526 cumulative IPC: 0.835741 (Simulation time: 2 hr 3 min 26 sec) 
Heartbeat CPU 3 instructions: 420000000 cycles: 318624209 heartbeat IPC: 1.14446 cumulative IPC: 1.14973 (Simulation time: 2 hr 3 min 50 sec) 
Heartbeat CPU 0 instructions: 390000002 cycles: 323410114 heartbeat IPC: 1.11763 cumulative IPC: 0.945615 (Simulation time: 2 hr 5 min 23 sec) 
Heartbeat CPU 3 instructions: 430000000 cycles: 327151382 heartbeat IPC: 1.17272 cumulative IPC: 1.15039 (Simulation time: 2 hr 6 min 35 sec) 
Heartbeat CPU 1 instructions: 340000002 cycles: 329266645 heartbeat IPC: 0.843493 cumulative IPC: 0.836048 (Simulation time: 2 hr 7 min 20 sec) 
Heartbeat CPU 0 instructions: 400000003 cycles: 331079713 heartbeat IPC: 1.30385 cumulative IPC: 0.954724 (Simulation time: 2 hr 7 min 56 sec) 
Heartbeat CPU 3 instructions: 440000000 cycles: 335646095 heartbeat IPC: 1.1772 cumulative IPC: 1.15113 (Simulation time: 2 hr 9 min 31 sec) 
Heartbeat CPU 0 instructions: 410000003 cycles: 337770008 heartbeat IPC: 1.4947 cumulative IPC: 0.966441 (Simulation time: 2 hr 10 min 16 sec) 
Heartbeat CPU 1 instructions: 350000002 cycles: 341155355 heartbeat IPC: 0.841134 cumulative IPC: 0.836242 (Simulation time: 2 hr 11 min 28 sec) 
Heartbeat CPU 3 instructions: 450000002 cycles: 344119196 heartbeat IPC: 1.18021 cumulative IPC: 1.15191 (Simulation time: 2 hr 12 min 24 sec) 
Heartbeat CPU 0 instructions: 420000000 cycles: 344462625 heartbeat IPC: 1.49418 cumulative IPC: 0.977653 (Simulation time: 2 hr 12 min 30 sec) 
Heartbeat CPU 0 instructions: 430000002 cycles: 351156848 heartbeat IPC: 1.49383 cumulative IPC: 0.988393 (Simulation time: 2 hr 14 min 48 sec) 
Heartbeat CPU 3 instructions: 460000002 cycles: 352571219 heartbeat IPC: 1.18315 cumulative IPC: 1.15273 (Simulation time: 2 hr 15 min 17 sec) 
Heartbeat CPU 1 instructions: 360000003 cycles: 353072841 heartbeat IPC: 0.839103 cumulative IPC: 0.836347 (Simulation time: 2 hr 15 min 28 sec) 
Heartbeat CPU 0 instructions: 440000000 cycles: 357854961 heartbeat IPC: 1.49296 cumulative IPC: 0.998684 (Simulation time: 2 hr 17 min 12 sec) 
Heartbeat CPU 3 instructions: 470000001 cycles: 361027240 heartbeat IPC: 1.18259 cumulative IPC: 1.15349 (Simulation time: 2 hr 18 min 13 sec) 
Heartbeat CPU 0 instructions: 450000003 cycles: 364558228 heartbeat IPC: 1.49181 cumulative IPC: 1.00855 (Simulation time: 2 hr 19 min 28 sec) 
Heartbeat CPU 1 instructions: 370000001 cycles: 364811291 heartbeat IPC: 0.851901 cumulative IPC: 0.836891 (Simulation time: 2 hr 19 min 34 sec) 
Heartbeat CPU 3 instructions: 480000000 cycles: 369690334 heartbeat IPC: 1.15432 cumulative IPC: 1.15351 (Simulation time: 2 hr 21 min 18 sec) 
Heartbeat CPU 0 instructions: 460000000 cycles: 371254262 heartbeat IPC: 1.49342 cumulative IPC: 1.01805 (Simulation time: 2 hr 21 min 51 sec) 
Heartbeat CPU 1 instructions: 380000002 cycles: 376414553 heartbeat IPC: 0.861827 cumulative IPC: 0.837725 (Simulation time: 2 hr 23 min 44 sec) 
Heartbeat CPU 3 instructions: 490000002 cycles: 378315500 heartbeat IPC: 1.1594 cumulative IPC: 1.15366 (Simulation time: 2 hr 24 min 26 sec) 
Heartbeat CPU 0 instructions: 470000003 cycles: 379517820 heartbeat IPC: 1.21013 cumulative IPC: 1.02258 (Simulation time: 2 hr 24 min 50 sec) 
*** Reached end of trace for Core: 3 Repeating trace: ./traces/ligra/ligra_BC.com-lj.ungraph.gcc_6.3.0_O3.drop_500M.length_250M.champsimtrace.xz
Heartbeat CPU 3 instructions: 500000001 cycles: 386907471 heartbeat IPC: 1.16388 cumulative IPC: 1.1539 (Simulation time: 2 hr 27 min 15 sec) 
Heartbeat CPU 0 instructions: 480000003 cycles: 387615380 heartbeat IPC: 1.23494 cumulative IPC: 1.02738 (Simulation time: 2 hr 27 min 30 sec) 
Heartbeat CPU 1 instructions: 390000000 cycles: 388367172 heartbeat IPC: 0.836637 cumulative IPC: 0.837689 (Simulation time: 2 hr 27 min 45 sec) 
Heartbeat CPU 0 instructions: 490000002 cycles: 395052575 heartbeat IPC: 1.34459 cumulative IPC: 1.03383 (Simulation time: 2 hr 30 min 2 sec) 
Heartbeat CPU 3 instructions: 510000000 cycles: 395398450 heartbeat IPC: 1.17772 cumulative IPC: 1.15446 (Simulation time: 2 hr 30 min 9 sec) 
Heartbeat CPU 1 instructions: 400000001 cycles: 400468638 heartbeat IPC: 0.826346 cumulative IPC: 0.837319 (Simulation time: 2 hr 31 min 55 sec) 
Heartbeat CPU 0 instructions: 500000000 cycles: 402539983 heartbeat IPC: 1.33558 cumulative IPC: 1.03989 (Simulation time: 2 hr 32 min 39 sec) 
Heartbeat CPU 3 instructions: 520000002 cycles: 403897249 heartbeat IPC: 1.17664 cumulative IPC: 1.15496 (Simulation time: 2 hr 33 min 7 sec) 
Heartbeat CPU 0 instructions: 510000001 cycles: 410020730 heartbeat IPC: 1.33677 cumulative IPC: 1.04573 (Simulation time: 2 hr 35 min 16 sec) 
Heartbeat CPU 3 instructions: 530000002 cycles: 412410408 heartbeat IPC: 1.17465 cumulative IPC: 1.1554 (Simulation time: 2 hr 36 min 5 sec) 
Heartbeat CPU 1 instructions: 410000002 cycles: 412458920 heartbeat IPC: 0.834009 cumulative IPC: 0.837215 (Simulation time: 2 hr 36 min 6 sec) 
Heartbeat CPU 0 instructions: 520000002 cycles: 417381390 heartbeat IPC: 1.35857 cumulative IPC: 1.05166 (Simulation time: 2 hr 37 min 48 sec) 
Heartbeat CPU 3 instructions: 540000001 cycles: 420878535 heartbeat IPC: 1.1809 cumulative IPC: 1.15595 (Simulation time: 2 hr 39 min 3 sec) 
Heartbeat CPU 1 instructions: 420000003 cycles: 424429796 heartbeat IPC: 0.835361 cumulative IPC: 0.837159 (Simulation time: 2 hr 40 min 12 sec) 
Heartbeat CPU 0 instructions: 530000001 cycles: 424696665 heartbeat IPC: 1.367 cumulative IPC: 1.0575 (Simulation time: 2 hr 40 min 18 sec) 
Heartbeat CPU 3 instructions: 550000000 cycles: 429394343 heartbeat IPC: 1.17429 cumulative IPC: 1.15634 (Simulation time: 2 hr 41 min 53 sec) 
Heartbeat CPU 0 instructions: 540000002 cycles: 432874696 heartbeat IPC: 1.22279 cumulative IPC: 1.06085 (Simulation time: 2 hr 43 min 9 sec) 
Heartbeat CPU 1 instructions: 430000002 cycles: 436512026 heartbeat IPC: 0.827662 cumulative IPC: 0.836877 (Simulation time: 2 hr 44 min 2 sec) 
Heartbeat CPU 3 instructions: 560000001 cycles: 437911412 heartbeat IPC: 1.17411 cumulative IPC: 1.15671 (Simulation time: 2 hr 44 min 21 sec) 
Heartbeat CPU 3 instructions: 570000001 cycles: 446452572 heartbeat IPC: 1.1708 cumulative IPC: 1.157 (Simulation time: 2 hr 46 min 37 sec) 
Heartbeat CPU 1 instructions: 440000000 cycles: 448560524 heartbeat IPC: 0.829979 cumulative IPC: 0.836679 (Simulation time: 2 hr 47 min 12 sec) 
Heartbeat CPU 3 instructions: 580000002 cycles: 455005774 heartbeat IPC: 1.16915 cumulative IPC: 1.15724 (Simulation time: 2 hr 48 min 51 sec) 
Heartbeat CPU 1 instructions: 450000003 cycles: 460529753 heartbeat IPC: 0.835476 cumulative IPC: 0.836646 (Simulation time: 2 hr 50 min 25 sec) 
Heartbeat CPU 3 instructions: 590000000 cycles: 463563305 heartbeat IPC: 1.16856 cumulative IPC: 1.15747 (Simulation time: 2 hr 51 min 15 sec) 
Heartbeat CPU 3 instructions: 600000000 cycles: 472064113 heartbeat IPC: 1.17636 cumulative IPC: 1.15783 (Simulation time: 2 hr 53 min 44 sec) 
Heartbeat CPU 1 instructions: 460000000 cycles: 472407668 heartbeat IPC: 0.841898 cumulative IPC: 0.836787 (Simulation time: 2 hr 53 min 51 sec) 
Heartbeat CPU 0 instructions: 550000000 cycles: 473773726 heartbeat IPC: 0.244505 cumulative IPC: 0.985707 (Simulation time: 2 hr 54 min 15 sec) 
Heartbeat CPU 3 instructions: 610000002 cycles: 480616290 heartbeat IPC: 1.16929 cumulative IPC: 1.15805 (Simulation time: 2 hr 56 min 22 sec) 
Heartbeat CPU 1 instructions: 470000000 cycles: 484234049 heartbeat IPC: 0.845567 cumulative IPC: 0.837015 (Simulation time: 2 hr 57 min 30 sec) 
Heartbeat CPU 3 instructions: 620000000 cycles: 489089449 heartbeat IPC: 1.1802 cumulative IPC: 1.15845 (Simulation time: 2 hr 59 min 0 sec) 
Heartbeat CPU 2 instructions: 60000000 cycles: 492935366 heartbeat IPC: 0.0215754 cumulative IPC: 0.0215754 (Simulation time: 3 hr 0 min 11 sec) 
Heartbeat CPU 1 instructions: 480000002 cycles: 496104839 heartbeat IPC: 0.842404 cumulative IPC: 0.837152 (Simulation time: 3 hr 1 min 10 sec) 
Heartbeat CPU 3 instructions: 630000002 cycles: 497634068 heartbeat IPC: 1.17033 cumulative IPC: 1.15867 (Simulation time: 3 hr 1 min 39 sec) 
Heartbeat CPU 3 instructions: 640000002 cycles: 506232060 heartbeat IPC: 1.16306 cumulative IPC: 1.15875 (Simulation time: 3 hr 4 min 19 sec) 
Heartbeat CPU 1 instructions: 490000001 cycles: 507821788 heartbeat IPC: 0.853464 cumulative IPC: 0.837551 (Simulation time: 3 hr 4 min 48 sec) 
Heartbeat CPU 3 instructions: 650000000 cycles: 514828859 heartbeat IPC: 1.16322 cumulative IPC: 1.15883 (Simulation time: 3 hr 6 min 56 sec) 
*** Reached end of trace for Core: 1 Repeating trace: ./traces/ligra/ligra_Components-Shortcut.com-lj.ungraph.gcc_6.3.0_O3.drop_11500M.length_250M.champsimtrace.xz
Heartbeat CPU 1 instructions: 500000001 cycles: 519456231 heartbeat IPC: 0.859517 cumulative IPC: 0.838073 (Simulation time: 3 hr 8 min 10 sec) 
Heartbeat CPU 0 instructions: 560000003 cycles: 523468576 heartbeat IPC: 0.201228 cumulative IPC: 0.906795 (Simulation time: 3 hr 9 min 26 sec) 
Heartbeat CPU 3 instructions: 660000000 cycles: 523493474 heartbeat IPC: 1.15412 cumulative IPC: 1.15875 (Simulation time: 3 hr 9 min 27 sec) 
Heartbeat CPU 1 instructions: 510000002 cycles: 531305650 heartbeat IPC: 0.843923 cumulative IPC: 0.838211 (Simulation time: 3 hr 11 min 47 sec) 
Heartbeat CPU 3 instructions: 670000002 cycles: 532204852 heartbeat IPC: 1.14792 cumulative IPC: 1.15856 (Simulation time: 3 hr 12 min 4 sec) 
Heartbeat CPU 0 instructions: 570000003 cycles: 537871760 heartbeat IPC: 0.694291 cumulative IPC: 0.900775 (Simulation time: 3 hr 13 min 55 sec) 
Heartbeat CPU 3 instructions: 680000002 cycles: 540721468 heartbeat IPC: 1.17418 cumulative IPC: 1.15882 (Simulation time: 3 hr 14 min 50 sec) 
Heartbeat CPU 1 instructions: 520000001 cycles: 543331020 heartbeat IPC: 0.831575 cumulative IPC: 0.838056 (Simulation time: 3 hr 15 min 35 sec) 
Heartbeat CPU 3 instructions: 690000003 cycles: 549211202 heartbeat IPC: 1.17789 cumulative IPC: 1.15913 (Simulation time: 3 hr 17 min 28 sec) 
Heartbeat CPU 0 instructions: 580000001 cycles: 553013061 heartbeat IPC: 0.660445 cumulative IPC: 0.893825 (Simulation time: 3 hr 18 min 42 sec) 
Heartbeat CPU 1 instructions: 530000000 cycles: 555195968 heartbeat IPC: 0.842819 cumulative IPC: 0.838163 (Simulation time: 3 hr 19 min 24 sec) 
Heartbeat CPU 3 instructions: 700000000 cycles: 557684136 heartbeat IPC: 1.18023 cumulative IPC: 1.15947 (Simulation time: 3 hr 20 min 7 sec) 
Heartbeat CPU 3 instructions: 710000001 cycles: 566136791 heartbeat IPC: 1.18306 cumulative IPC: 1.15984 (Simulation time: 3 hr 22 min 51 sec) 
Heartbeat CPU 1 instructions: 540000001 cycles: 566964214 heartbeat IPC: 0.849744 cumulative IPC: 0.838417 (Simulation time: 3 hr 23 min 7 sec) 
Heartbeat CPU 0 instructions: 590000003 cycles: 568136857 heartbeat IPC: 0.66121 cumulative IPC: 0.887294 (Simulation time: 3 hr 23 min 30 sec) 
Heartbeat CPU 3 instructions: 720000000 cycles: 574590844 heartbeat IPC: 1.18286 cumulative IPC: 1.1602 (Simulation time: 3 hr 25 min 33 sec) 
Heartbeat CPU 1 instructions: 550000000 cycles: 578704984 heartbeat IPC: 0.851733 cumulative IPC: 0.838702 (Simulation time: 3 hr 27 min 3 sec) 
Heartbeat CPU 0 instructions: 600000002 cycles: 580872407 heartbeat IPC: 0.785204 cumulative IPC: 0.884936 (Simulation time: 3 hr 27 min 49 sec) 
Heartbeat CPU 3 instructions: 730000003 cycles: 583259985 heartbeat IPC: 1.15352 cumulative IPC: 1.16009 (Simulation time: 3 hr 28 min 38 sec) 
Heartbeat CPU 0 instructions: 610000001 cycles: 588066340 heartbeat IPC: 1.39006 cumulative IPC: 0.891441 (Simulation time: 3 hr 30 min 21 sec) 
Heartbeat CPU 1 instructions: 560000000 cycles: 590642228 heartbeat IPC: 0.837714 cumulative IPC: 0.838681 (Simulation time: 3 hr 31 min 16 sec) 
Heartbeat CPU 3 instructions: 740000000 cycles: 591897584 heartbeat IPC: 1.15773 cumulative IPC: 1.16006 (Simulation time: 3 hr 31 min 43 sec) 
Heartbeat CPU 0 instructions: 620000002 cycles: 595621606 heartbeat IPC: 1.32358 cumulative IPC: 0.897208 (Simulation time: 3 hr 33 min 3 sec) 
*** Reached end of trace for Core: 3 Repeating trace: ./traces/ligra/ligra_BC.com-lj.ungraph.gcc_6.3.0_O3.drop_500M.length_250M.champsimtrace.xz
Heartbeat CPU 3 instructions: 750000003 cycles: 600437245 heartbeat IPC: 1.17101 cumulative IPC: 1.16022 (Simulation time: 3 hr 34 min 46 sec) 
Heartbeat CPU 1 instructions: 570000000 cycles: 602438313 heartbeat IPC: 0.847739 cumulative IPC: 0.838867 (Simulation time: 3 hr 35 min 30 sec) 
Heartbeat CPU 0 instructions: 630000001 cycles: 603276523 heartbeat IPC: 1.30635 cumulative IPC: 0.902666 (Simulation time: 3 hr 35 min 48 sec) 
Heartbeat CPU 3 instructions: 760000002 cycles: 608925976 heartbeat IPC: 1.17803 cumulative IPC: 1.16048 (Simulation time: 3 hr 37 min 51 sec) 
Heartbeat CPU 0 instructions: 640000000 cycles: 610878295 heartbeat IPC: 1.31548 cumulative IPC: 0.908063 (Simulation time: 3 hr 38 min 32 sec) 
Heartbeat CPU 1 instructions: 580000001 cycles: 614289905 heartbeat IPC: 0.843769 cumulative IPC: 0.838966 (Simulation time: 3 hr 39 min 47 sec) 
Heartbeat CPU 3 instructions: 770000000 cycles: 617433194 heartbeat IPC: 1.17547 cumulative IPC: 1.1607 (Simulation time: 3 hr 40 min 55 sec) 
Heartbeat CPU 0 instructions: 650000000 cycles: 618565965 heartbeat IPC: 1.30078 cumulative IPC: 0.913188 (Simulation time: 3 hr 41 min 20 sec) 
Heartbeat CPU 3 instructions: 780000000 cycles: 625947257 heartbeat IPC: 1.17453 cumulative IPC: 1.1609 (Simulation time: 3 hr 43 min 55 sec) 
Heartbeat CPU 1 instructions: 590000002 cycles: 626142607 heartbeat IPC: 0.84369 cumulative IPC: 0.83906 (Simulation time: 3 hr 43 min 59 sec) 
Heartbeat CPU 0 instructions: 660000000 cycles: 626217358 heartbeat IPC: 1.30695 cumulative IPC: 0.918236 (Simulation time: 3 hr 44 min 1 sec) 
Heartbeat CPU 3 instructions: 790000000 cycles: 634426795 heartbeat IPC: 1.17931 cumulative IPC: 1.16115 (Simulation time: 3 hr 47 min 1 sec) 
Heartbeat CPU 0 instructions: 670000000 cycles: 634761481 heartbeat IPC: 1.1704 cumulative IPC: 0.921795 (Simulation time: 3 hr 47 min 9 sec) 
Heartbeat CPU 1 instructions: 600000002 cycles: 638026913 heartbeat IPC: 0.841446 cumulative IPC: 0.839107 (Simulation time: 3 hr 48 min 12 sec) 
Heartbeat CPU 3 instructions: 800000002 cycles: 642954755 heartbeat IPC: 1.17261 cumulative IPC: 1.16131 (Simulation time: 3 hr 49 min 41 sec) 
Heartbeat CPU 1 instructions: 610000003 cycles: 649934700 heartbeat IPC: 0.839787 cumulative IPC: 0.83912 (Simulation time: 3 hr 51 min 50 sec) 
Heartbeat CPU 3 instructions: 810000000 cycles: 651492116 heartbeat IPC: 1.17132 cumulative IPC: 1.16145 (Simulation time: 3 hr 52 min 20 sec) 
Heartbeat CPU 3 instructions: 820000000 cycles: 660027152 heartbeat IPC: 1.17164 cumulative IPC: 1.16159 (Simulation time: 3 hr 55 min 3 sec) 
Heartbeat CPU 1 instructions: 620000001 cycles: 661669641 heartbeat IPC: 0.852156 cumulative IPC: 0.839362 (Simulation time: 3 hr 55 min 34 sec) 
Heartbeat CPU 0 instructions: 680000000 cycles: 664286701 heartbeat IPC: 0.338693 cumulative IPC: 0.894677 (Simulation time: 3 hr 56 min 20 sec) 
Heartbeat CPU 3 instructions: 830000001 cycles: 668578261 heartbeat IPC: 1.16944 cumulative IPC: 1.16169 (Simulation time: 3 hr 57 min 39 sec) 
Heartbeat CPU 1 instructions: 630000002 cycles: 673267673 heartbeat IPC: 0.862215 cumulative IPC: 0.839773 (Simulation time: 3 hr 59 min 14 sec) 
Heartbeat CPU 0 instructions: 690000000 cycles: 674633840 heartbeat IPC: 0.966451 cumulative IPC: 0.895828 (Simulation time: 3 hr 59 min 41 sec) 
Heartbeat CPU 3 instructions: 840000002 cycles: 677145639 heartbeat IPC: 1.16722 cumulative IPC: 1.16177 (Simulation time: 4 hr 0 min 31 sec) 
Heartbeat CPU 0 instructions: 700000003 cycles: 683829081 heartbeat IPC: 1.08752 cumulative IPC: 0.898521 (Simulation time: 4 hr 2 min 43 sec) 
Heartbeat CPU 1 instructions: 640000000 cycles: 685218202 heartbeat IPC: 0.836783 cumulative IPC: 0.839719 (Simulation time: 4 hr 3 min 11 sec) 
Heartbeat CPU 3 instructions: 850000000 cycles: 685639336 heartbeat IPC: 1.17734 cumulative IPC: 1.16197 (Simulation time: 4 hr 3 min 19 sec) 
Heartbeat CPU 0 instructions: 710000002 cycles: 692612324 heartbeat IPC: 1.13853 cumulative IPC: 0.9017 (Simulation time: 4 hr 5 min 26 sec) 
Heartbeat CPU 3 instructions: 860000001 cycles: 694116963 heartbeat IPC: 1.17958 cumulative IPC: 1.16219 (Simulation time: 4 hr 5 min 56 sec) 
Heartbeat CPU 1 instructions: 650000001 cycles: 697317963 heartbeat IPC: 0.826463 cumulative IPC: 0.839479 (Simulation time: 4 hr 6 min 58 sec) 
Heartbeat CPU 0 instructions: 720000003 cycles: 701319647 heartbeat IPC: 1.14846 cumulative IPC: 0.904898 (Simulation time: 4 hr 8 min 18 sec) 
Heartbeat CPU 3 instructions: 870000002 cycles: 702581365 heartbeat IPC: 1.18142 cumulative IPC: 1.16243 (Simulation time: 4 hr 8 min 44 sec) 
Heartbeat CPU 1 instructions: 660000000 cycles: 709308443 heartbeat IPC: 0.833995 cumulative IPC: 0.839382 (Simulation time: 4 hr 10 min 59 sec) 
Heartbeat CPU 0 instructions: 730000002 cycles: 709844351 heartbeat IPC: 1.17306 cumulative IPC: 0.908258 (Simulation time: 4 hr 11 min 10 sec) 
Heartbeat CPU 3 instructions: 880000000 cycles: 711100359 heartbeat IPC: 1.17385 cumulative IPC: 1.16258 (Simulation time: 4 hr 11 min 36 sec) 
Heartbeat CPU 0 instructions: 740000003 cycles: 718360761 heartbeat IPC: 1.1742 cumulative IPC: 0.911545 (Simulation time: 4 hr 14 min 1 sec) 
Heartbeat CPU 3 instructions: 890000001 cycles: 719674096 heartbeat IPC: 1.16635 cumulative IPC: 1.16262 (Simulation time: 4 hr 14 min 26 sec) 
Heartbeat CPU 1 instructions: 670000002 cycles: 721279501 heartbeat IPC: 0.835348 cumulative IPC: 0.839312 (Simulation time: 4 hr 14 min 58 sec) 
Heartbeat CPU 0 instructions: 750000003 cycles: 726827232 heartbeat IPC: 1.18113 cumulative IPC: 0.914818 (Simulation time: 4 hr 16 min 40 sec) 
Heartbeat CPU 3 instructions: 900000002 cycles: 728265439 heartbeat IPC: 1.16396 cumulative IPC: 1.16264 (Simulation time: 4 hr 17 min 6 sec) 
Heartbeat CPU 1 instructions: 680000002 cycles: 733358310 heartbeat IPC: 0.827896 cumulative IPC: 0.839116 (Simulation time: 4 hr 18 min 50 sec) 
Heartbeat CPU 0 instructions: 760000000 cycles: 735452788 heartbeat IPC: 1.15935 cumulative IPC: 0.917806 (Simulation time: 4 hr 19 min 36 sec) 
Heartbeat CPU 3 instructions: 910000001 cycles: 736906081 heartbeat IPC: 1.15732 cumulative IPC: 1.16258 (Simulation time: 4 hr 20 min 7 sec) 
Heartbeat CPU 0 instructions: 770000000 cycles: 743418287 heartbeat IPC: 1.25541 cumulative IPC: 0.921572 (Simulation time: 4 hr 22 min 20 sec) 
Heartbeat CPU 1 instructions: 690000000 cycles: 745402014 heartbeat IPC: 0.830309 cumulative IPC: 0.838968 (Simulation time: 4 hr 23 min 1 sec) 
Heartbeat CPU 3 instructions: 920000000 cycles: 745617961 heartbeat IPC: 1.14786 cumulative IPC: 1.1624 (Simulation time: 4 hr 23 min 5 sec) 
Heartbeat CPU 0 instructions: 780000003 cycles: 751625294 heartbeat IPC: 1.21847 cumulative IPC: 0.924946 (Simulation time: 4 hr 25 min 10 sec) 
Heartbeat CPU 3 instructions: 930000000 cycles: 754134490 heartbeat IPC: 1.17419 cumulative IPC: 1.16254 (Simulation time: 4 hr 25 min 54 sec) 
Heartbeat CPU 1 instructions: 700000002 cycles: 757367504 heartbeat IPC: 0.835737 cumulative IPC: 0.838915 (Simulation time: 4 hr 26 min 49 sec) 
Heartbeat CPU 0 instructions: 790000003 cycles: 759896925 heartbeat IPC: 1.20895 cumulative IPC: 0.928162 (Simulation time: 4 hr 27 min 38 sec) 
Heartbeat CPU 3 instructions: 940000000 cycles: 762624363 heartbeat IPC: 1.17787 cumulative IPC: 1.16271 (Simulation time: 4 hr 28 min 31 sec) 
Heartbeat CPU 0 instructions: 800000003 cycles: 768123704 heartbeat IPC: 1.21554 cumulative IPC: 0.931363 (Simulation time: 4 hr 30 min 26 sec) 
Heartbeat CPU 1 instructions: 710000000 cycles: 769242390 heartbeat IPC: 0.842113 cumulative IPC: 0.838966 (Simulation time: 4 hr 30 min 51 sec) 
Heartbeat CPU 3 instructions: 950000002 cycles: 771095912 heartbeat IPC: 1.18042 cumulative IPC: 1.16292 (Simulation time: 4 hr 31 min 30 sec) 
Heartbeat CPU 0 instructions: 810000001 cycles: 776307958 heartbeat IPC: 1.22186 cumulative IPC: 0.934546 (Simulation time: 4 hr 33 min 21 sec) 
Heartbeat CPU 3 instructions: 960000000 cycles: 779546605 heartbeat IPC: 1.18333 cumulative IPC: 1.16315 (Simulation time: 4 hr 34 min 26 sec) 
Heartbeat CPU 1 instructions: 720000000 cycles: 781067842 heartbeat IPC: 0.845634 cumulative IPC: 0.839071 (Simulation time: 4 hr 34 min 59 sec) 
Heartbeat CPU 0 instructions: 820000001 cycles: 784471237 heartbeat IPC: 1.225 cumulative IPC: 0.937687 (Simulation time: 4 hr 36 min 10 sec) 
Heartbeat CPU 3 instructions: 970000003 cycles: 788000396 heartbeat IPC: 1.1829 cumulative IPC: 1.16337 (Simulation time: 4 hr 37 min 20 sec) 
Heartbeat CPU 1 instructions: 730000002 cycles: 792940005 heartbeat IPC: 0.842307 cumulative IPC: 0.839122 (Simulation time: 4 hr 39 min 8 sec) 
Heartbeat CPU 0 instructions: 830000000 cycles: 793540974 heartbeat IPC: 1.10257 cumulative IPC: 0.939644 (Simulation time: 4 hr 39 min 22 sec) 
Heartbeat CPU 3 instructions: 980000001 cycles: 796689573 heartbeat IPC: 1.15086 cumulative IPC: 1.16322 (Simulation time: 4 hr 40 min 29 sec) 
Heartbeat CPU 0 instructions: 840000000 cycles: 801587170 heartbeat IPC: 1.24282 cumulative IPC: 0.942803 (Simulation time: 4 hr 42 min 15 sec) 
Heartbeat CPU 1 instructions: 740000001 cycles: 804654156 heartbeat IPC: 0.853668 cumulative IPC: 0.839341 (Simulation time: 4 hr 43 min 20 sec) 
Heartbeat CPU 3 instructions: 990000000 cycles: 805363520 heartbeat IPC: 1.15288 cumulative IPC: 1.16311 (Simulation time: 4 hr 43 min 35 sec) 
Heartbeat CPU 0 instructions: 850000003 cycles: 808931273 heartbeat IPC: 1.36164 cumulative IPC: 0.946749 (Simulation time: 4 hr 44 min 53 sec) 
*** Reached end of trace for Core: 3 Repeating trace: ./traces/ligra/ligra_BC.com-lj.ungraph.gcc_6.3.0_O3.drop_500M.length_250M.champsimtrace.xz
Heartbeat CPU 3 instructions: 1000000001 cycles: 813899270 heartbeat IPC: 1.17154 cumulative IPC: 1.1632 (Simulation time: 4 hr 46 min 41 sec) 
Heartbeat CPU 0 instructions: 860000000 cycles: 816201437 heartbeat IPC: 1.37548 cumulative IPC: 0.950711 (Simulation time: 4 hr 47 min 26 sec) 
*** Reached end of trace for Core: 1 Repeating trace: ./traces/ligra/ligra_Components-Shortcut.com-lj.ungraph.gcc_6.3.0_O3.drop_11500M.length_250M.champsimtrace.xz
Heartbeat CPU 1 instructions: 750000001 cycles: 816290369 heartbeat IPC: 0.859386 cumulative IPC: 0.839638 (Simulation time: 4 hr 47 min 28 sec) 
Heartbeat CPU 3 instructions: 1010000001 cycles: 822382001 heartbeat IPC: 1.17887 cumulative IPC: 1.16337 (Simulation time: 4 hr 49 min 37 sec) 
Heartbeat CPU 0 instructions: 870000000 cycles: 823524528 heartbeat IPC: 1.36554 cumulative IPC: 0.954536 (Simulation time: 4 hr 50 min 2 sec) 
Heartbeat CPU 1 instructions: 760000002 cycles: 828143512 heartbeat IPC: 0.843658 cumulative IPC: 0.839698 (Simulation time: 4 hr 51 min 42 sec) 
Heartbeat CPU 0 instructions: 880000000 cycles: 830804594 heartbeat IPC: 1.37361 cumulative IPC: 0.958344 (Simulation time: 4 hr 52 min 38 sec) 
Heartbeat CPU 3 instructions: 1020000001 cycles: 830879638 heartbeat IPC: 1.1768 cumulative IPC: 1.16351 (Simulation time: 4 hr 52 min 39 sec) 
Heartbeat CPU 0 instructions: 890000000 cycles: 838023595 heartbeat IPC: 1.38523 cumulative IPC: 0.962155 (Simulation time: 4 hr 55 min 1 sec) 
Heartbeat CPU 3 instructions: 1030000002 cycles: 839387962 heartbeat IPC: 1.17532 cumulative IPC: 1.16363 (Simulation time: 4 hr 55 min 29 sec) 
Heartbeat CPU 1 instructions: 770000000 cycles: 840164300 heartbeat IPC: 0.831892 cumulative IPC: 0.839582 (Simulation time: 4 hr 55 min 45 sec) 
Heartbeat CPU 0 instructions: 900000002 cycles: 845243113 heartbeat IPC: 1.38513 cumulative IPC: 0.965898 (Simulation time: 4 hr 57 min 33 sec) 
Heartbeat CPU 3 instructions: 1040000000 cycles: 847864706 heartbeat IPC: 1.1797 cumulative IPC: 1.1638 (Simulation time: 4 hr 58 min 25 sec) 
Heartbeat CPU 1 instructions: 780000003 cycles: 852026059 heartbeat IPC: 0.843046 cumulative IPC: 0.839632 (Simulation time: 4 hr 59 min 45 sec) 
Heartbeat CPU 3 instructions: 1050000001 cycles: 856370856 heartbeat IPC: 1.17562 cumulative IPC: 1.16392 (Simulation time: 5 hr 1 min 9 sec) 
Heartbeat CPU 0 instructions: 910000002 cycles: 859880357 heartbeat IPC: 0.683189 cumulative IPC: 0.960915 (Simulation time: 5 hr 2 min 16 sec) 
Heartbeat CPU 1 instructions: 790000001 cycles: 863793809 heartbeat IPC: 0.84978 cumulative IPC: 0.839775 (Simulation time: 5 hr 3 min 31 sec) 
Heartbeat CPU 3 instructions: 1060000002 cycles: 864883867 heartbeat IPC: 1.17467 cumulative IPC: 1.16403 (Simulation time: 5 hr 3 min 51 sec) 
Heartbeat CPU 3 instructions: 1070000001 cycles: 873414234 heartbeat IPC: 1.17228 cumulative IPC: 1.16411 (Simulation time: 5 hr 6 min 35 sec) 
Heartbeat CPU 0 instructions: 920000000 cycles: 874781061 heartbeat IPC: 0.671109 cumulative IPC: 0.955807 (Simulation time: 5 hr 7 min 0 sec) 
Heartbeat CPU 1 instructions: 800000000 cycles: 875535760 heartbeat IPC: 0.851647 cumulative IPC: 0.83994 (Simulation time: 5 hr 7 min 15 sec) 
Heartbeat CPU 3 instructions: 1080000000 cycles: 881955990 heartbeat IPC: 1.17072 cumulative IPC: 1.16418 (Simulation time: 5 hr 9 min 11 sec) 
Heartbeat CPU 1 instructions: 810000000 cycles: 887471686 heartbeat IPC: 0.837807 cumulative IPC: 0.83991 (Simulation time: 5 hr 10 min 53 sec) 
Heartbeat CPU 0 instructions: 930000002 cycles: 889554996 heartbeat IPC: 0.676868 cumulative IPC: 0.951015 (Simulation time: 5 hr 11 min 31 sec) 
Heartbeat CPU 3 instructions: 1090000000 cycles: 890509938 heartbeat IPC: 1.16905 cumulative IPC: 1.16423 (Simulation time: 5 hr 11 min 50 sec) 
Heartbeat CPU 3 instructions: 1100000000 cycles: 898995756 heartbeat IPC: 1.17844 cumulative IPC: 1.16437 (Simulation time: 5 hr 14 min 21 sec) 
Heartbeat CPU 1 instructions: 820000000 cycles: 899266923 heartbeat IPC: 0.8478 cumulative IPC: 0.840017 (Simulation time: 5 hr 14 min 26 sec) 
Heartbeat CPU 3 instructions: 1110000000 cycles: 907480204 heartbeat IPC: 1.17863 cumulative IPC: 1.16451 (Simulation time: 5 hr 16 min 47 sec) 
Heartbeat CPU 1 instructions: 830000001 cycles: 911116048 heartbeat IPC: 0.843944 cumulative IPC: 0.84007 (Simulation time: 5 hr 17 min 46 sec) 
Heartbeat CPU 0 instructions: 940000000 cycles: 912969063 heartbeat IPC: 0.427094 cumulative IPC: 0.937131 (Simulation time: 5 hr 18 min 15 sec) 
Heartbeat CPU 3 instructions: 1120000003 cycles: 915945500 heartbeat IPC: 1.18129 cumulative IPC: 1.16467 (Simulation time: 5 hr 19 min 6 sec) 
Heartbeat CPU 1 instructions: 840000002 cycles: 922968129 heartbeat IPC: 0.843734 cumulative IPC: 0.840118 (Simulation time: 5 hr 21 min 4 sec) 
Heartbeat CPU 3 instructions: 1130000001 cycles: 924467984 heartbeat IPC: 1.17337 cumulative IPC: 1.16475 (Simulation time: 5 hr 21 min 30 sec) 
Heartbeat CPU 3 instructions: 1140000002 cycles: 933042796 heartbeat IPC: 1.16621 cumulative IPC: 1.16476 (Simulation time: 5 hr 23 min 50 sec) 
Heartbeat CPU 1 instructions: 850000002 cycles: 934852242 heartbeat IPC: 0.84146 cumulative IPC: 0.840136 (Simulation time: 5 hr 24 min 15 sec) 
Heartbeat CPU 3 instructions: 1150000003 cycles: 941632710 heartbeat IPC: 1.16416 cumulative IPC: 1.16476 (Simulation time: 5 hr 25 min 59 sec) 
Heartbeat CPU 1 instructions: 860000003 cycles: 946760134 heartbeat IPC: 0.839779 cumulative IPC: 0.840131 (Simulation time: 5 hr 27 min 26 sec) 
Heartbeat CPU 3 instructions: 1160000000 cycles: 950284531 heartbeat IPC: 1.15583 cumulative IPC: 1.16467 (Simulation time: 5 hr 28 min 26 sec) 
Heartbeat CPU 2 instructions: 70000000 cycles: 957481736 heartbeat IPC: 0.0215264 cumulative IPC: 0.0215508 (Simulation time: 5 hr 30 min 30 sec) 
Heartbeat CPU 0 instructions: 950000000 cycles: 957967281 heartbeat IPC: 0.222231 cumulative IPC: 0.902486 (Simulation time: 5 hr 30 min 41 sec) 
Heartbeat CPU 1 instructions: 870000001 cycles: 958498206 heartbeat IPC: 0.851928 cumulative IPC: 0.84028 (Simulation time: 5 hr 30 min 52 sec) 
Heartbeat CPU 3 instructions: 1170000000 cycles: 959003283 heartbeat IPC: 1.14695 cumulative IPC: 1.16451 (Simulation time: 5 hr 31 min 4 sec) 
Heartbeat CPU 0 instructions: 960000000 cycles: 966920630 heartbeat IPC: 1.1169 cumulative IPC: 0.904533 (Simulation time: 5 hr 33 min 24 sec) 
Heartbeat CPU 3 instructions: 1180000002 cycles: 967529707 heartbeat IPC: 1.17282 cumulative IPC: 1.16458 (Simulation time: 5 hr 33 min 36 sec) 
Heartbeat CPU 1 instructions: 880000000 cycles: 970096424 heartbeat IPC: 0.862201 cumulative IPC: 0.840551 (Simulation time: 5 hr 34 min 28 sec) 
Heartbeat CPU 3 instructions: 1190000002 cycles: 976019861 heartbeat IPC: 1.17783 cumulative IPC: 1.1647 (Simulation time: 5 hr 36 min 25 sec) 
Heartbeat CPU 0 instructions: 970000000 cycles: 976190008 heartbeat IPC: 1.07882 cumulative IPC: 0.90624 (Simulation time: 5 hr 36 min 28 sec) 
Heartbeat CPU 1 instructions: 890000001 cycles: 982049375 heartbeat IPC: 0.836614 cumulative IPC: 0.840501 (Simulation time: 5 hr 38 min 20 sec) 
Heartbeat CPU 3 instructions: 1200000002 cycles: 984491496 heartbeat IPC: 1.18041 cumulative IPC: 1.16484 (Simulation time: 5 hr 39 min 8 sec) 
Heartbeat CPU 0 instructions: 980000002 cycles: 985637183 heartbeat IPC: 1.05852 cumulative IPC: 0.907744 (Simulation time: 5 hr 39 min 31 sec) 
Heartbeat CPU 3 instructions: 1210000000 cycles: 992942407 heartbeat IPC: 1.1833 cumulative IPC: 1.165 (Simulation time: 5 hr 41 min 52 sec) 
Heartbeat CPU 1 instructions: 900000002 cycles: 994142626 heartbeat IPC: 0.826908 cumulative IPC: 0.840331 (Simulation time: 5 hr 42 min 12 sec) 
Heartbeat CPU 0 instructions: 990000000 cycles: 995093282 heartbeat IPC: 1.05752 cumulative IPC: 0.909211 (Simulation time: 5 hr 42 min 29 sec) 
Heartbeat CPU 3 instructions: 1220000001 cycles: 1001396955 heartbeat IPC: 1.1828 cumulative IPC: 1.16516 (Simulation time: 5 hr 44 min 34 sec) 
Heartbeat CPU 0 instructions: 1000000000 cycles: 1004527230 heartbeat IPC: 1.06 cumulative IPC: 0.91067 (Simulation time: 5 hr 45 min 36 sec) 
Heartbeat CPU 1 instructions: 910000002 cycles: 1006129212 heartbeat IPC: 0.834266 cumulative IPC: 0.840256 (Simulation time: 5 hr 46 min 7 sec) 
Heartbeat CPU 3 instructions: 1230000000 cycles: 1010058606 heartbeat IPC: 1.15451 cumulative IPC: 1.16506 (Simulation time: 5 hr 47 min 9 sec) 
Heartbeat CPU 0 instructions: 1010000002 cycles: 1013944208 heartbeat IPC: 1.06191 cumulative IPC: 0.912116 (Simulation time: 5 hr 48 min 19 sec) 
Heartbeat CPU 1 instructions: 920000003 cycles: 1018096953 heartbeat IPC: 0.83558 cumulative IPC: 0.8402 (Simulation time: 5 hr 49 min 32 sec) 
Heartbeat CPU 3 instructions: 1240000000 cycles: 1018683631 heartbeat IPC: 1.15942 cumulative IPC: 1.16501 (Simulation time: 5 hr 49 min 44 sec) 
Heartbeat CPU 0 instructions: 1020000002 cycles: 1023379502 heartbeat IPC: 1.05985 cumulative IPC: 0.913519 (Simulation time: 5 hr 51 min 12 sec) 
*** Reached end of trace for Core: 3 Repeating trace: ./traces/ligra/ligra_BC.com-lj.ungraph.gcc_6.3.0_O3.drop_500M.length_250M.champsimtrace.xz
Heartbeat CPU 3 instructions: 1250000001 cycles: 1027200979 heartbeat IPC: 1.17407 cumulative IPC: 1.16509 (Simulation time: 5 hr 52 min 20 sec) 
Heartbeat CPU 1 instructions: 930000002 cycles: 1030173899 heartbeat IPC: 0.828024 cumulative IPC: 0.840053 (Simulation time: 5 hr 53 min 23 sec) 
Heartbeat CPU 0 instructions: 1030000001 cycles: 1033891257 heartbeat IPC: 0.951316 cumulative IPC: 0.913914 (Simulation time: 5 hr 54 min 33 sec) 
Heartbeat CPU 3 instructions: 1260000000 cycles: 1035703034 heartbeat IPC: 1.17619 cumulative IPC: 1.16519 (Simulation time: 5 hr 55 min 0 sec) 
Heartbeat CPU 1 instructions: 940000000 cycles: 1042215432 heartbeat IPC: 0.830459 cumulative IPC: 0.839939 (Simulation time: 5 hr 56 min 58 sec) 
Heartbeat CPU 0 instructions: 1040000000 cycles: 1043365848 heartbeat IPC: 1.05545 cumulative IPC: 0.915237 (Simulation time: 5 hr 57 min 19 sec) 
Heartbeat CPU 3 instructions: 1270000000 cycles: 1044200101 heartbeat IPC: 1.17688 cumulative IPC: 1.16528 (Simulation time: 5 hr 57 min 36 sec) 
Heartbeat CPU 0 instructions: 1050000000 cycles: 1052445135 heartbeat IPC: 1.10141 cumulative IPC: 0.916889 (Simulation time: 6 hr 0 min 16 sec) 
Heartbeat CPU 3 instructions: 1280000001 cycles: 1052703824 heartbeat IPC: 1.17596 cumulative IPC: 1.16537 (Simulation time: 6 hr 0 min 22 sec) 
Heartbeat CPU 1 instructions: 950000002 cycles: 1054184896 heartbeat IPC: 0.835459 cumulative IPC: 0.839886 (Simulation time: 6 hr 0 min 45 sec) 
Heartbeat CPU 3 instructions: 1290000001 cycles: 1061183550 heartbeat IPC: 1.17928 cumulative IPC: 1.16549 (Simulation time: 6 hr 2 min 42 sec) 
Heartbeat CPU 0 instructions: 1060000000 cycles: 1061583642 heartbeat IPC: 1.09427 cumulative IPC: 0.91846 (Simulation time: 6 hr 2 min 50 sec) 
Heartbeat CPU 1 instructions: 960000002 cycles: 1066057646 heartbeat IPC: 0.842265 cumulative IPC: 0.839914 (Simulation time: 6 hr 4 min 15 sec) 
Heartbeat CPU 3 instructions: 1300000000 cycles: 1069712176 heartbeat IPC: 1.17252 cumulative IPC: 1.16554 (Simulation time: 6 hr 5 min 24 sec) 
Heartbeat CPU 0 instructions: 1070000003 cycles: 1070632740 heartbeat IPC: 1.10508 cumulative IPC: 0.920082 (Simulation time: 6 hr 5 min 42 sec) 
Heartbeat CPU 1 instructions: 970000000 cycles: 1077884819 heartbeat IPC: 0.84551 cumulative IPC: 0.839977 (Simulation time: 6 hr 7 min 46 sec) 
Heartbeat CPU 3 instructions: 1310000001 cycles: 1078239055 heartbeat IPC: 1.17276 cumulative IPC: 1.1656 (Simulation time: 6 hr 7 min 51 sec) 
Heartbeat CPU 0 instructions: 1080000000 cycles: 1079675300 heartbeat IPC: 1.10588 cumulative IPC: 0.921682 (Simulation time: 6 hr 8 min 18 sec) 
Heartbeat CPU 3 instructions: 1320000000 cycles: 1086785743 heartbeat IPC: 1.17004 cumulative IPC: 1.16564 (Simulation time: 6 hr 10 min 28 sec) 
Heartbeat CPU 0 instructions: 1090000003 cycles: 1088610368 heartbeat IPC: 1.11919 cumulative IPC: 0.923348 (Simulation time: 6 hr 11 min 1 sec) 
Heartbeat CPU 1 instructions: 980000002 cycles: 1089758529 heartbeat IPC: 0.842197 cumulative IPC: 0.840002 (Simulation time: 6 hr 11 min 24 sec) 
Heartbeat CPU 3 instructions: 1330000002 cycles: 1095343322 heartbeat IPC: 1.16856 cumulative IPC: 1.16566 (Simulation time: 6 hr 13 min 13 sec) 
Heartbeat CPU 0 instructions: 1100000000 cycles: 1097224352 heartbeat IPC: 1.1609 cumulative IPC: 0.925264 (Simulation time: 6 hr 13 min 50 sec) 
Heartbeat CPU 1 instructions: 990000000 cycles: 1101469060 heartbeat IPC: 0.853932 cumulative IPC: 0.840154 (Simulation time: 6 hr 15 min 16 sec) 
Heartbeat CPU 3 instructions: 1340000000 cycles: 1103897745 heartbeat IPC: 1.16899 cumulative IPC: 1.16569 (Simulation time: 6 hr 16 min 3 sec) 
Heartbeat CPU 0 instructions: 1110000003 cycles: 1104139005 heartbeat IPC: 1.4462 cumulative IPC: 0.928616 (Simulation time: 6 hr 16 min 8 sec) 
Heartbeat CPU 0 instructions: 1120000003 cycles: 1111608239 heartbeat IPC: 1.33883 cumulative IPC: 0.931447 (Simulation time: 6 hr 18 min 39 sec) 
Heartbeat CPU 3 instructions: 1350000000 cycles: 1112390957 heartbeat IPC: 1.17741 cumulative IPC: 1.16578 (Simulation time: 6 hr 18 min 55 sec) 
*** Reached end of trace for Core: 1 Repeating trace: ./traces/ligra/ligra_Components-Shortcut.com-lj.ungraph.gcc_6.3.0_O3.drop_11500M.length_250M.champsimtrace.xz
Heartbeat CPU 1 instructions: 1000000001 cycles: 1113101290 heartbeat IPC: 0.85968 cumulative IPC: 0.840364 (Simulation time: 6 hr 19 min 10 sec) 
Heartbeat CPU 0 instructions: 1130000000 cycles: 1119329628 heartbeat IPC: 1.2951 cumulative IPC: 0.934024 (Simulation time: 6 hr 21 min 14 sec) 
Heartbeat CPU 3 instructions: 1360000000 cycles: 1120864044 heartbeat IPC: 1.18021 cumulative IPC: 1.16589 (Simulation time: 6 hr 21 min 45 sec) 
Heartbeat CPU 1 instructions: 1010000002 cycles: 1124951474 heartbeat IPC: 0.843869 cumulative IPC: 0.840401 (Simulation time: 6 hr 23 min 5 sec) 
Heartbeat CPU 0 instructions: 1140000002 cycles: 1126945853 heartbeat IPC: 1.31299 cumulative IPC: 0.936653 (Simulation time: 6 hr 23 min 41 sec) 
Heartbeat CPU 3 instructions: 1370000000 cycles: 1129321155 heartbeat IPC: 1.18244 cumulative IPC: 1.16602 (Simulation time: 6 hr 24 min 23 sec) 
Heartbeat CPU 0 instructions: 1150000002 cycles: 1134484734 heartbeat IPC: 1.32646 cumulative IPC: 0.939313 (Simulation time: 6 hr 25 min 57 sec) 
Heartbeat CPU 1 instructions: 1020000001 cycles: 1136971853 heartbeat IPC: 0.83192 cumulative IPC: 0.840309 (Simulation time: 6 hr 26 min 48 sec) 
Heartbeat CPU 3 instructions: 1380000000 cycles: 1137837187 heartbeat IPC: 1.17426 cumulative IPC: 1.16608 (Simulation time: 6 hr 27 min 5 sec) 
Heartbeat CPU 0 instructions: 1160000001 cycles: 1142019616 heartbeat IPC: 1.32716 cumulative IPC: 0.941939 (Simulation time: 6 hr 28 min 29 sec) 
Heartbeat CPU 3 instructions: 1390000000 cycles: 1146404087 heartbeat IPC: 1.16728 cumulative IPC: 1.16609 (Simulation time: 6 hr 29 min 56 sec) 
Heartbeat CPU 1 instructions: 1030000000 cycles: 1148833419 heartbeat IPC: 0.843059 cumulative IPC: 0.840339 (Simulation time: 6 hr 30 min 37 sec) 
Heartbeat CPU 0 instructions: 1170000001 cycles: 1150826532 heartbeat IPC: 1.13547 cumulative IPC: 0.943459 (Simulation time: 6 hr 31 min 11 sec) 
Heartbeat CPU 3 instructions: 1400000000 cycles: 1154992016 heartbeat IPC: 1.16443 cumulative IPC: 1.16608 (Simulation time: 6 hr 32 min 23 sec) 
Heartbeat CPU 1 instructions: 1040000001 cycles: 1160599056 heartbeat IPC: 0.849933 cumulative IPC: 0.840438 (Simulation time: 6 hr 33 min 54 sec) 
Heartbeat CPU 0 instructions: 1180000003 cycles: 1161055013 heartbeat IPC: 0.977662 cumulative IPC: 0.943769 (Simulation time: 6 hr 34 min 2 sec) 
Heartbeat CPU 3 instructions: 1410000000 cycles: 1163636723 heartbeat IPC: 1.15678 cumulative IPC: 1.16601 (Simulation time: 6 hr 34 min 44 sec) 
Heartbeat CPU 0 instructions: 1190000003 cycles: 1170782551 heartbeat IPC: 1.02801 cumulative IPC: 0.944486 (Simulation time: 6 hr 36 min 46 sec) 
Heartbeat CPU 1 instructions: 1050000000 cycles: 1172333759 heartbeat IPC: 0.852173 cumulative IPC: 0.840559 (Simulation time: 6 hr 37 min 14 sec) 
Heartbeat CPU 3 instructions: 1420000002 cycles: 1172353050 heartbeat IPC: 1.14727 cumulative IPC: 1.16587 (Simulation time: 6 hr 37 min 14 sec) 
Heartbeat CPU 0 instructions: 1200000002 cycles: 1180477261 heartbeat IPC: 1.03149 cumulative IPC: 0.945219 (Simulation time: 6 hr 39 min 41 sec) 
Heartbeat CPU 3 instructions: 1430000000 cycles: 1180871264 heartbeat IPC: 1.17395 cumulative IPC: 1.16593 (Simulation time: 6 hr 39 min 48 sec) 
Heartbeat CPU 1 instructions: 1060000000 cycles: 1184267668 heartbeat IPC: 0.837948 cumulative IPC: 0.840532 (Simulation time: 6 hr 40 min 46 sec) 
Heartbeat CPU 3 instructions: 1440000001 cycles: 1189362588 heartbeat IPC: 1.17767 cumulative IPC: 1.16601 (Simulation time: 6 hr 42 min 19 sec) 
Heartbeat CPU 0 instructions: 1210000000 cycles: 1190261935 heartbeat IPC: 1.02201 cumulative IPC: 0.945867 (Simulation time: 6 hr 42 min 32 sec) 
Heartbeat CPU 1 instructions: 1070000000 cycles: 1196064062 heartbeat IPC: 0.847717 cumulative IPC: 0.840604 (Simulation time: 6 hr 44 min 15 sec) 
Heartbeat CPU 3 instructions: 1450000000 cycles: 1197839274 heartbeat IPC: 1.17971 cumulative IPC: 1.16611 (Simulation time: 6 hr 44 min 45 sec) 
Heartbeat CPU 0 instructions: 1220000002 cycles: 1199996779 heartbeat IPC: 1.02724 cumulative IPC: 0.946543 (Simulation time: 6 hr 45 min 21 sec) 
Heartbeat CPU 3 instructions: 1460000001 cycles: 1206294513 heartbeat IPC: 1.1827 cumulative IPC: 1.16623 (Simulation time: 6 hr 47 min 5 sec) 
Heartbeat CPU 1 instructions: 1080000001 cycles: 1207906221 heartbeat IPC: 0.844441 cumulative IPC: 0.840643 (Simulation time: 6 hr 47 min 34 sec) 
Heartbeat CPU 0 instructions: 1230000000 cycles: 1209666959 heartbeat IPC: 1.03411 cumulative IPC: 0.947261 (Simulation time: 6 hr 48 min 6 sec) 
Heartbeat CPU 3 instructions: 1470000003 cycles: 1214750516 heartbeat IPC: 1.18259 cumulative IPC: 1.16635 (Simulation time: 6 hr 49 min 40 sec) 
Heartbeat CPU 0 instructions: 1240000003 cycles: 1219269542 heartbeat IPC: 1.04139 cumulative IPC: 0.94802 (Simulation time: 6 hr 50 min 59 sec) 
Heartbeat CPU 1 instructions: 1090000002 cycles: 1219754969 heartbeat IPC: 0.843971 cumulative IPC: 0.840676 (Simulation time: 6 hr 51 min 7 sec) 
Heartbeat CPU 3 instructions: 1480000001 cycles: 1223411612 heartbeat IPC: 1.15459 cumulative IPC: 1.16626 (Simulation time: 6 hr 52 min 21 sec) 
Heartbeat CPU 1 instructions: 1100000000 cycles: 1231636437 heartbeat IPC: 0.841647 cumulative IPC: 0.840686 (Simulation time: 6 hr 54 min 36 sec) 
Heartbeat CPU 3 instructions: 1490000001 cycles: 1232039340 heartbeat IPC: 1.15905 cumulative IPC: 1.16621 (Simulation time: 6 hr 54 min 42 sec) 
*** Reached end of trace for Core: 3 Repeating trace: ./traces/ligra/ligra_BC.com-lj.ungraph.gcc_6.3.0_O3.drop_500M.length_250M.champsimtrace.xz
Heartbeat CPU 3 instructions: 1500000000 cycles: 1240561984 heartbeat IPC: 1.17334 cumulative IPC: 1.16626 (Simulation time: 6 hr 56 min 52 sec) 
Heartbeat CPU 1 instructions: 1110000002 cycles: 1243542510 heartbeat IPC: 0.839908 cumulative IPC: 0.840678 (Simulation time: 6 hr 57 min 33 sec) 
Heartbeat CPU 3 instructions: 1510000001 cycles: 1249030839 heartbeat IPC: 1.1808 cumulative IPC: 1.16636 (Simulation time: 6 hr 58 min 57 sec) 
Heartbeat CPU 0 instructions: 1250000002 cycles: 1250427963 heartbeat IPC: 0.32094 cumulative IPC: 0.932018 (Simulation time: 6 hr 59 min 20 sec) 
Heartbeat CPU 1 instructions: 1120000001 cycles: 1255277973 heartbeat IPC: 0.852118 cumulative IPC: 0.840788 (Simulation time: 7 hr 0 min 35 sec) 
Heartbeat CPU 3 instructions: 1520000000 cycles: 1257519379 heartbeat IPC: 1.17806 cumulative IPC: 1.16644 (Simulation time: 7 hr 1 min 8 sec) 
Heartbeat CPU 3 instructions: 1530000000 cycles: 1266086731 heartbeat IPC: 1.16722 cumulative IPC: 1.16645 (Simulation time: 7 hr 3 min 25 sec) 
Heartbeat CPU 1 instructions: 1130000002 cycles: 1266871417 heartbeat IPC: 0.862557 cumulative IPC: 0.840992 (Simulation time: 7 hr 3 min 36 sec) 
Heartbeat CPU 3 instructions: 1540000000 cycles: 1274587429 heartbeat IPC: 1.17637 cumulative IPC: 1.16651 (Simulation time: 7 hr 5 min 38 sec) 
Heartbeat CPU 1 instructions: 1140000000 cycles: 1278823487 heartbeat IPC: 0.836675 cumulative IPC: 0.84095 (Simulation time: 7 hr 6 min 45 sec) 
Heartbeat CPU 3 instructions: 1550000002 cycles: 1283140142 heartbeat IPC: 1.16922 cumulative IPC: 1.16653 (Simulation time: 7 hr 7 min 56 sec) 
Heartbeat CPU 1 instructions: 1150000001 cycles: 1290920013 heartbeat IPC: 0.826684 cumulative IPC: 0.840813 (Simulation time: 7 hr 9 min 44 sec) 
Heartbeat CPU 3 instructions: 1560000000 cycles: 1291675472 heartbeat IPC: 1.1716 cumulative IPC: 1.16657 (Simulation time: 7 hr 9 min 56 sec) 
Heartbeat CPU 3 instructions: 1570000003 cycles: 1300231190 heartbeat IPC: 1.16881 cumulative IPC: 1.16658 (Simulation time: 7 hr 12 min 20 sec) 
Heartbeat CPU 1 instructions: 1160000002 cycles: 1302903976 heartbeat IPC: 0.834449 cumulative IPC: 0.840754 (Simulation time: 7 hr 13 min 1 sec) 
Heartbeat CPU 0 instructions: 1260000000 cycles: 1305216354 heartbeat IPC: 0.18252 cumulative IPC: 0.89983 (Simulation time: 7 hr 13 min 43 sec) 
Heartbeat CPU 3 instructions: 1580000000 cycles: 1308817895 heartbeat IPC: 1.16459 cumulative IPC: 1.16657 (Simulation time: 7 hr 14 min 47 sec) 
Heartbeat CPU 1 instructions: 1170000003 cycles: 1314869679 heartbeat IPC: 0.835722 cumulative IPC: 0.840707 (Simulation time: 7 hr 16 min 36 sec) 
Heartbeat CPU 3 instructions: 1590000000 cycles: 1317376566 heartbeat IPC: 1.16841 cumulative IPC: 1.16658 (Simulation time: 7 hr 17 min 21 sec) 
Heartbeat CPU 0 instructions: 1270000003 cycles: 1323614150 heartbeat IPC: 0.543544 cumulative IPC: 0.894766 (Simulation time: 7 hr 18 min 52 sec) 
Heartbeat CPU 3 instructions: 1600000002 cycles: 1325861352 heartbeat IPC: 1.17858 cumulative IPC: 1.16666 (Simulation time: 7 hr 19 min 32 sec) 
Heartbeat CPU 1 instructions: 1180000002 cycles: 1326945565 heartbeat IPC: 0.828097 cumulative IPC: 0.840589 (Simulation time: 7 hr 19 min 50 sec) 
Heartbeat CPU 3 instructions: 1610000000 cycles: 1334331393 heartbeat IPC: 1.18063 cumulative IPC: 1.16675 (Simulation time: 7 hr 21 min 44 sec) 
Heartbeat CPU 0 instructions: 1280000003 cycles: 1338404723 heartbeat IPC: 0.676106 cumulative IPC: 0.892295 (Simulation time: 7 hr 22 min 46 sec) 
Heartbeat CPU 1 instructions: 1190000000 cycles: 1338987324 heartbeat IPC: 0.830443 cumulative IPC: 0.840496 (Simulation time: 7 hr 22 min 56 sec) 
Heartbeat CPU 3 instructions: 1620000000 cycles: 1342784987 heartbeat IPC: 1.18293 cumulative IPC: 1.16685 (Simulation time: 7 hr 23 min 54 sec) 
Heartbeat CPU 1 instructions: 1200000002 cycles: 1350951644 heartbeat IPC: 0.835819 cumulative IPC: 0.840454 (Simulation time: 7 hr 25 min 49 sec) 
Heartbeat CPU 3 instructions: 1630000002 cycles: 1351299958 heartbeat IPC: 1.1744 cumulative IPC: 1.1669 (Simulation time: 7 hr 25 min 54 sec) 
Heartbeat CPU 0 instructions: 1290000001 cycles: 1353450373 heartbeat IPC: 0.664644 cumulative IPC: 0.889708 (Simulation time: 7 hr 26 min 31 sec) 
Heartbeat CPU 3 instructions: 1640000001 cycles: 1359865252 heartbeat IPC: 1.1675 cumulative IPC: 1.16691 (Simulation time: 7 hr 28 min 15 sec) 
Heartbeat CPU 1 instructions: 1210000000 cycles: 1362824920 heartbeat IPC: 0.842227 cumulative IPC: 0.84047 (Simulation time: 7 hr 29 min 7 sec) 
Heartbeat CPU 0 instructions: 1300000000 cycles: 1368155412 heartbeat IPC: 0.680039 cumulative IPC: 0.887405 (Simulation time: 7 hr 30 min 45 sec) 
Heartbeat CPU 3 instructions: 1650000000 cycles: 1368453523 heartbeat IPC: 1.16438 cumulative IPC: 1.16689 (Simulation time: 7 hr 30 min 50 sec) 
Heartbeat CPU 1 instructions: 1220000000 cycles: 1374646057 heartbeat IPC: 0.845942 cumulative IPC: 0.840518 (Simulation time: 7 hr 32 min 32 sec) 
Heartbeat CPU 0 instructions: 1310000001 cycles: 1376419794 heartbeat IPC: 1.21001 cumulative IPC: 0.889384 (Simulation time: 7 hr 33 min 7 sec) 
Heartbeat CPU 3 instructions: 1660000002 cycles: 1377095307 heartbeat IPC: 1.15717 cumulative IPC: 1.16683 (Simulation time: 7 hr 33 min 19 sec) 
Heartbeat CPU 0 instructions: 1320000000 cycles: 1384649537 heartbeat IPC: 1.2151 cumulative IPC: 0.891362 (Simulation time: 7 hr 35 min 25 sec) 
Heartbeat CPU 3 instructions: 1670000001 cycles: 1385807350 heartbeat IPC: 1.14784 cumulative IPC: 1.16671 (Simulation time: 7 hr 35 min 48 sec) 
Heartbeat CPU 1 instructions: 1230000002 cycles: 1386513231 heartbeat IPC: 0.842661 cumulative IPC: 0.840536 (Simulation time: 7 hr 36 min 2 sec) 
Heartbeat CPU 0 instructions: 1330000001 cycles: 1393335038 heartbeat IPC: 1.15134 cumulative IPC: 0.893018 (Simulation time: 7 hr 38 min 17 sec) 
Heartbeat CPU 3 instructions: 1680000000 cycles: 1394326470 heartbeat IPC: 1.17383 cumulative IPC: 1.16675 (Simulation time: 7 hr 38 min 36 sec) 
Heartbeat CPU 1 instructions: 1240000001 cycles: 1398227226 heartbeat IPC: 0.85368 cumulative IPC: 0.840649 (Simulation time: 7 hr 39 min 49 sec) 
Heartbeat CPU 2 instructions: 80000001 cycles: 1402353329 heartbeat IPC: 0.0224784 cumulative IPC: 0.0218514 (Simulation time: 7 hr 41 min 1 sec) 
Heartbeat CPU 3 instructions: 1690000000 cycles: 1402822280 heartbeat IPC: 1.17705 cumulative IPC: 1.16681 (Simulation time: 7 hr 41 min 9 sec) 
Heartbeat CPU 0 instructions: 1340000000 cycles: 1403176192 heartbeat IPC: 1.01614 cumulative IPC: 0.8939 (Simulation time: 7 hr 41 min 14 sec) 
*** Reached end of trace for Core: 1 Repeating trace: ./traces/ligra/ligra_Components-Shortcut.com-lj.ungraph.gcc_6.3.0_O3.drop_11500M.length_250M.champsimtrace.xz
Heartbeat CPU 1 instructions: 1250000001 cycles: 1409862429 heartbeat IPC: 0.859461 cumulative IPC: 0.840807 (Simulation time: 7 hr 43 min 18 sec) 
Heartbeat CPU 3 instructions: 1700000000 cycles: 1411295548 heartbeat IPC: 1.18018 cumulative IPC: 1.1669 (Simulation time: 7 hr 43 min 41 sec) 
Heartbeat CPU 0 instructions: 1350000003 cycles: 1411694414 heartbeat IPC: 1.17395 cumulative IPC: 0.895626 (Simulation time: 7 hr 43 min 47 sec) 
Heartbeat CPU 3 instructions: 1710000000 cycles: 1419747843 heartbeat IPC: 1.18311 cumulative IPC: 1.167 (Simulation time: 7 hr 46 min 20 sec) 
Heartbeat CPU 0 instructions: 1360000001 cycles: 1420557604 heartbeat IPC: 1.12826 cumulative IPC: 0.897108 (Simulation time: 7 hr 46 min 35 sec) 
Heartbeat CPU 1 instructions: 1260000002 cycles: 1421710847 heartbeat IPC: 0.843995 cumulative IPC: 0.840834 (Simulation time: 7 hr 46 min 55 sec) 
Heartbeat CPU 3 instructions: 1720000001 cycles: 1428205697 heartbeat IPC: 1.18233 cumulative IPC: 1.16709 (Simulation time: 7 hr 48 min 42 sec) 
Heartbeat CPU 0 instructions: 1370000001 cycles: 1429304564 heartbeat IPC: 1.14325 cumulative IPC: 0.898646 (Simulation time: 7 hr 48 min 59 sec) 
Heartbeat CPU 1 instructions: 1270000001 cycles: 1433730813 heartbeat IPC: 0.831949 cumulative IPC: 0.840758 (Simulation time: 7 hr 50 min 19 sec) 
Heartbeat CPU 3 instructions: 1730000003 cycles: 1436870526 heartbeat IPC: 1.15409 cumulative IPC: 1.16701 (Simulation time: 7 hr 51 min 14 sec) 
Heartbeat CPU 3 instructions: 1740000003 cycles: 1445501843 heartbeat IPC: 1.15857 cumulative IPC: 1.16696 (Simulation time: 7 hr 53 min 26 sec) 
Heartbeat CPU 1 instructions: 1280000000 cycles: 1445590046 heartbeat IPC: 0.843225 cumulative IPC: 0.840779 (Simulation time: 7 hr 53 min 27 sec) 
Heartbeat CPU 0 instructions: 1380000000 cycles: 1453904543 heartbeat IPC: 0.406504 cumulative IPC: 0.890147 (Simulation time: 7 hr 55 min 19 sec) 
*** Reached end of trace for Core: 3 Repeating trace: ./traces/ligra/ligra_BC.com-lj.ungraph.gcc_6.3.0_O3.drop_500M.length_250M.champsimtrace.xz
Heartbeat CPU 3 instructions: 1750000002 cycles: 1454025735 heartbeat IPC: 1.17317 cumulative IPC: 1.16699 (Simulation time: 7 hr 55 min 20 sec) 
Heartbeat CPU 1 instructions: 1290000001 cycles: 1457357423 heartbeat IPC: 0.849807 cumulative IPC: 0.840854 (Simulation time: 7 hr 56 min 14 sec) 
Heartbeat CPU 3 instructions: 1760000000 cycles: 1462494666 heartbeat IPC: 1.18079 cumulative IPC: 1.16708 (Simulation time: 7 hr 57 min 36 sec) 
Heartbeat CPU 1 instructions: 1300000000 cycles: 1469095505 heartbeat IPC: 0.851928 cumulative IPC: 0.840944 (Simulation time: 7 hr 59 min 23 sec) 
Heartbeat CPU 0 instructions: 1390000001 cycles: 1469131780 heartbeat IPC: 0.656718 cumulative IPC: 0.887678 (Simulation time: 7 hr 59 min 24 sec) 
Heartbeat CPU 3 instructions: 1770000000 cycles: 1470995016 heartbeat IPC: 1.17642 cumulative IPC: 1.16713 (Simulation time: 7 hr 59 min 50 sec) 
Heartbeat CPU 0 instructions: 1400000001 cycles: 1478891018 heartbeat IPC: 1.02467 cumulative IPC: 0.8886 (Simulation time: 8 hr 1 min 49 sec) 
Heartbeat CPU 3 instructions: 1780000002 cycles: 1479509004 heartbeat IPC: 1.17454 cumulative IPC: 1.16717 (Simulation time: 8 hr 1 min 58 sec) 
Heartbeat CPU 1 instructions: 1310000000 cycles: 1481026801 heartbeat IPC: 0.838132 cumulative IPC: 0.840921 (Simulation time: 8 hr 2 min 20 sec) 
Heartbeat CPU 3 instructions: 1790000002 cycles: 1487983922 heartbeat IPC: 1.17995 cumulative IPC: 1.16725 (Simulation time: 8 hr 4 min 24 sec) 
Heartbeat CPU 0 instructions: 1410000000 cycles: 1488489707 heartbeat IPC: 1.04181 cumulative IPC: 0.889608 (Simulation time: 8 hr 4 min 32 sec) 
Heartbeat CPU 1 instructions: 1320000000 cycles: 1492820579 heartbeat IPC: 0.847905 cumulative IPC: 0.840977 (Simulation time: 8 hr 5 min 37 sec) 
Heartbeat CPU 3 instructions: 1800000001 cycles: 1496496428 heartbeat IPC: 1.17474 cumulative IPC: 1.16729 (Simulation time: 8 hr 6 min 46 sec) 
Heartbeat CPU 0 instructions: 1420000000 cycles: 1497922292 heartbeat IPC: 1.06015 cumulative IPC: 0.890704 (Simulation time: 8 hr 7 min 13 sec) 
Heartbeat CPU 1 instructions: 1330000003 cycles: 1504668511 heartbeat IPC: 0.844029 cumulative IPC: 0.841002 (Simulation time: 8 hr 9 min 17 sec) 
Heartbeat CPU 3 instructions: 1810000002 cycles: 1505017033 heartbeat IPC: 1.17363 cumulative IPC: 1.16733 (Simulation time: 8 hr 9 min 24 sec) 
Heartbeat CPU 0 instructions: 1430000000 cycles: 1506632782 heartbeat IPC: 1.14804 cumulative IPC: 0.892221 (Simulation time: 8 hr 9 min 56 sec) 
Heartbeat CPU 3 instructions: 1820000001 cycles: 1513551954 heartbeat IPC: 1.17166 cumulative IPC: 1.16735 (Simulation time: 8 hr 11 min 55 sec) 
Heartbeat CPU 0 instructions: 1440000002 cycles: 1515242828 heartbeat IPC: 1.16143 cumulative IPC: 0.893781 (Simulation time: 8 hr 12 min 21 sec) 
Heartbeat CPU 1 instructions: 1340000002 cycles: 1516516550 heartbeat IPC: 0.844021 cumulative IPC: 0.841026 (Simulation time: 8 hr 12 min 41 sec) 
Heartbeat CPU 3 instructions: 1830000002 cycles: 1522103805 heartbeat IPC: 1.16934 cumulative IPC: 1.16736 (Simulation time: 8 hr 14 min 18 sec) 
Heartbeat CPU 0 instructions: 1450000002 cycles: 1523765721 heartbeat IPC: 1.17331 cumulative IPC: 0.895375 (Simulation time: 8 hr 14 min 50 sec) 
Heartbeat CPU 1 instructions: 1350000002 cycles: 1528400703 heartbeat IPC: 0.841457 cumulative IPC: 0.841029 (Simulation time: 8 hr 16 min 20 sec) 
Heartbeat CPU 3 instructions: 1840000001 cycles: 1530662478 heartbeat IPC: 1.16841 cumulative IPC: 1.16737 (Simulation time: 8 hr 17 min 7 sec) 
Heartbeat CPU 0 instructions: 1460000001 cycles: 1533273815 heartbeat IPC: 1.05174 cumulative IPC: 0.896364 (Simulation time: 8 hr 17 min 49 sec) 
Heartbeat CPU 3 instructions: 1850000002 cycles: 1539156140 heartbeat IPC: 1.17735 cumulative IPC: 1.16743 (Simulation time: 8 hr 19 min 32 sec) 
Heartbeat CPU 1 instructions: 1360000003 cycles: 1540311395 heartbeat IPC: 0.839582 cumulative IPC: 0.841018 (Simulation time: 8 hr 19 min 50 sec) 
Heartbeat CPU 0 instructions: 1470000000 cycles: 1541568968 heartbeat IPC: 1.20552 cumulative IPC: 0.89806 (Simulation time: 8 hr 20 min 14 sec) 
Heartbeat CPU 3 instructions: 1860000000 cycles: 1547626180 heartbeat IPC: 1.18063 cumulative IPC: 1.1675 (Simulation time: 8 hr 22 min 6 sec) 
Heartbeat CPU 0 instructions: 1480000000 cycles: 1550989631 heartbeat IPC: 1.0615 cumulative IPC: 0.899072 (Simulation time: 8 hr 23 min 2 sec) 
Heartbeat CPU 1 instructions: 1370000001 cycles: 1552046441 heartbeat IPC: 0.852148 cumulative IPC: 0.841103 (Simulation time: 8 hr 23 min 18 sec) 
Heartbeat CPU 3 instructions: 1870000000 cycles: 1556080996 heartbeat IPC: 1.18276 cumulative IPC: 1.16758 (Simulation time: 8 hr 24 min 31 sec) 
Heartbeat CPU 0 instructions: 1490000002 cycles: 1561332863 heartbeat IPC: 0.966816 cumulative IPC: 0.899529 (Simulation time: 8 hr 26 min 2 sec) 
Heartbeat CPU 1 instructions: 1380000002 cycles: 1563641474 heartbeat IPC: 0.862438 cumulative IPC: 0.841265 (Simulation time: 8 hr 26 min 44 sec) 
Heartbeat CPU 3 instructions: 1880000001 cycles: 1564596945 heartbeat IPC: 1.17427 cumulative IPC: 1.16762 (Simulation time: 8 hr 27 min 0 sec) 
Heartbeat CPU 0 instructions: 1500000001 cycles: 1570478460 heartbeat IPC: 1.09342 cumulative IPC: 0.90068 (Simulation time: 8 hr 28 min 42 sec) 
Heartbeat CPU 3 instructions: 1890000001 cycles: 1573161389 heartbeat IPC: 1.16762 cumulative IPC: 1.16762 (Simulation time: 8 hr 29 min 29 sec) 
Heartbeat CPU 1 instructions: 1390000000 cycles: 1575587539 heartbeat IPC: 0.837096 cumulative IPC: 0.841232 (Simulation time: 8 hr 30 min 10 sec) 
Heartbeat CPU 0 instructions: 1510000000 cycles: 1579951567 heartbeat IPC: 1.05562 cumulative IPC: 0.901627 (Simulation time: 8 hr 31 min 26 sec) 
Heartbeat CPU 3 instructions: 1900000001 cycles: 1581747382 heartbeat IPC: 1.16469 cumulative IPC: 1.16761 (Simulation time: 8 hr 31 min 59 sec) 
Heartbeat CPU 1 instructions: 1400000001 cycles: 1587681951 heartbeat IPC: 0.826828 cumulative IPC: 0.841121 (Simulation time: 8 hr 33 min 34 sec) 
Heartbeat CPU 0 instructions: 1520000001 cycles: 1589268414 heartbeat IPC: 1.07332 cumulative IPC: 0.902652 (Simulation time: 8 hr 34 min 2 sec) 
Heartbeat CPU 3 instructions: 1910000002 cycles: 1590388212 heartbeat IPC: 1.1573 cumulative IPC: 1.16755 (Simulation time: 8 hr 34 min 23 sec) 
Heartbeat CPU 0 instructions: 1530000002 cycles: 1598971980 heartbeat IPC: 1.03055 cumulative IPC: 0.903443 (Simulation time: 8 hr 36 min 47 sec) 
Heartbeat CPU 3 instructions: 1920000000 cycles: 1599100269 heartbeat IPC: 1.14783 cumulative IPC: 1.16744 (Simulation time: 8 hr 36 min 50 sec) 
Heartbeat CPU 1 instructions: 1410000002 cycles: 1599667976 heartbeat IPC: 0.834305 cumulative IPC: 0.841069 (Simulation time: 8 hr 37 min 2 sec) 
Heartbeat CPU 3 instructions: 1930000000 cycles: 1607688924 heartbeat IPC: 1.16433 cumulative IPC: 1.16742 (Simulation time: 8 hr 39 min 14 sec) 
Heartbeat CPU 0 instructions: 1540000000 cycles: 1608963962 heartbeat IPC: 1.0008 cumulative IPC: 0.904059 (Simulation time: 8 hr 39 min 34 sec) 
Heartbeat CPU 1 instructions: 1420000003 cycles: 1611635249 heartbeat IPC: 0.835612 cumulative IPC: 0.841027 (Simulation time: 8 hr 40 min 14 sec) 
Heartbeat CPU 3 instructions: 1940000002 cycles: 1616228311 heartbeat IPC: 1.17104 cumulative IPC: 1.16744 (Simulation time: 8 hr 41 min 34 sec) 
Heartbeat CPU 0 instructions: 1550000003 cycles: 1617941586 heartbeat IPC: 1.11388 cumulative IPC: 0.905245 (Simulation time: 8 hr 42 min 7 sec) 
Heartbeat CPU 1 instructions: 1430000000 cycles: 1623709381 heartbeat IPC: 0.828217 cumulative IPC: 0.84093 (Simulation time: 8 hr 43 min 51 sec) 
Heartbeat CPU 3 instructions: 1950000002 cycles: 1624740504 heartbeat IPC: 1.17479 cumulative IPC: 1.16748 (Simulation time: 8 hr 44 min 8 sec) 
Heartbeat CPU 0 instructions: 1560000002 cycles: 1626764671 heartbeat IPC: 1.13339 cumulative IPC: 0.906505 (Simulation time: 8 hr 44 min 44 sec) 
Heartbeat CPU 3 instructions: 1960000002 cycles: 1633228378 heartbeat IPC: 1.17815 cumulative IPC: 1.16754 (Simulation time: 8 hr 46 min 28 sec) 
Heartbeat CPU 0 instructions: 1570000003 cycles: 1635597786 heartbeat IPC: 1.1321 cumulative IPC: 0.907745 (Simulation time: 8 hr 47 min 7 sec) 
Heartbeat CPU 1 instructions: 1440000000 cycles: 1635751509 heartbeat IPC: 0.830418 cumulative IPC: 0.840851 (Simulation time: 8 hr 47 min 10 sec) 
Heartbeat CPU 3 instructions: 1970000003 cycles: 1641726553 heartbeat IPC: 1.17672 cumulative IPC: 1.16759 (Simulation time: 8 hr 48 min 55 sec) 
Heartbeat CPU 0 instructions: 1580000000 cycles: 1644339808 heartbeat IPC: 1.1439 cumulative IPC: 0.909024 (Simulation time: 8 hr 49 min 43 sec) 
Heartbeat CPU 1 instructions: 1450000002 cycles: 1647716600 heartbeat IPC: 0.835765 cumulative IPC: 0.840814 (Simulation time: 8 hr 50 min 37 sec) 
Heartbeat CPU 3 instructions: 1980000000 cycles: 1650425959 heartbeat IPC: 1.1495 cumulative IPC: 1.16749 (Simulation time: 8 hr 51 min 20 sec) 
Heartbeat CPU 0 instructions: 1590000000 cycles: 1653030816 heartbeat IPC: 1.15061 cumulative IPC: 0.910317 (Simulation time: 8 hr 52 min 7 sec) 
Heartbeat CPU 3 instructions: 1990000003 cycles: 1659081672 heartbeat IPC: 1.15531 cumulative IPC: 1.16742 (Simulation time: 8 hr 53 min 53 sec) 
Heartbeat CPU 1 instructions: 1460000002 cycles: 1659587604 heartbeat IPC: 0.842389 cumulative IPC: 0.840825 (Simulation time: 8 hr 54 min 3 sec) 
Heartbeat CPU 0 instructions: 1600000003 cycles: 1661673116 heartbeat IPC: 1.1571 cumulative IPC: 0.911624 (Simulation time: 8 hr 54 min 41 sec) 
*** Reached end of trace for Core: 3 Repeating trace: ./traces/ligra/ligra_BC.com-lj.ungraph.gcc_6.3.0_O3.drop_500M.length_250M.champsimtrace.xz
Heartbeat CPU 3 instructions: 2000000002 cycles: 1667625270 heartbeat IPC: 1.17047 cumulative IPC: 1.16744 (Simulation time: 8 hr 56 min 26 sec) 
Heartbeat CPU 1 instructions: 1470000000 cycles: 1671407843 heartbeat IPC: 0.846006 cumulative IPC: 0.840863 (Simulation time: 8 hr 57 min 30 sec) 
Heartbeat CPU 0 instructions: 1610000002 cycles: 1674007491 heartbeat IPC: 0.810742 cumulative IPC: 0.910867 (Simulation time: 8 hr 58 min 15 sec) 
Heartbeat CPU 3 instructions: 2010000000 cycles: 1676086764 heartbeat IPC: 1.18182 cumulative IPC: 1.16751 (Simulation time: 8 hr 58 min 47 sec) 
Heartbeat CPU 1 instructions: 1480000002 cycles: 1683278635 heartbeat IPC: 0.842404 cumulative IPC: 0.840874 (Simulation time: 9 hr 0 min 40 sec) 
Heartbeat CPU 3 instructions: 2020000000 cycles: 1684568420 heartbeat IPC: 1.17902 cumulative IPC: 1.16757 (Simulation time: 9 hr 1 min 4 sec) 
Heartbeat CPU 0 instructions: 1620000000 cycles: 1688588602 heartbeat IPC: 0.685819 cumulative IPC: 0.908889 (Simulation time: 9 hr 2 min 7 sec) 
[...]
L2C PREFETCHES SAME FILL-ORIGIN LEVEL: 3288917 DIFFERENT FILL-ORIGIN LEVEL: 0
L2C AVERAGE MISS LATENCY: 379.951 cycles
L2C RQ	ACCESS:   33914662	FORWARD:          0	MERGED:          0	TO_CACHE:   33914661
L2C WQ	ACCESS:     151250	FORWARD:          1	MERGED:          0	TO_CACHE:     151250
L2C PQ	ACCESS:   40579495	FORWARD:          0	MERGED:      72478	TO_CACHE:   40507017

L2C Instructions Evicting Data 21
L2C Translations Evicting Data 8292
L2C Data Evicting Data 26774776
L2C Instructions Evicting Instructions 0
L2C Translations Evicting Instructions 0
L2C Data Evicting Instructions 21
L2C Instructions Evicting Translations 0
L2C Translations Evicting Translations 3
L2C Data Evicting Translations 8283
L2C Dense regions hint from L2: 0
PSCL5 TOTAL     ACCESS:    1742047  HIT:    1742047  MISS:          0  HIT %:        100  MISS %:          0   MPKI: 0
PSCL5 LOAD TRANSLATION ACCESS:      25518  HIT:      25518  MISS:          0  HIT %:        100  MISS %:          0   MPKI: 0
PSCL5 TRANSLATION FROM L1D PREFETCHER ACCESS:    1716529  HIT:    1716529  MISS:          0  HIT %:        100  MISS %:          0   MPKI: 0
PSCL5 PREFETCH  REQUESTED:          0  ISSUED:          0  USEFUL:          0  USELESS:          0
PSCL5 USEFUL LOAD PREFETCHES:          0 PREFETCH ISSUED TO LOWER LEVEL:          0  ACCURACY: -nan
PSCL5 TIMELY PREFETCHES:          0 LATE PREFETCHES: 0 DROPPED PREFETCHES: 0
PSCL5 PREFETCHES SAME FILL-ORIGIN LEVEL: 0 DIFFERENT FILL-ORIGIN LEVEL: 0

PSCL4 TOTAL     ACCESS:    1742047  HIT:    1742047  MISS:          0  HIT %:        100  MISS %:          0   MPKI: 0
PSCL4 LOAD TRANSLATION ACCESS:      25518  HIT:      25518  MISS:          0  HIT %:        100  MISS %:          0   MPKI: 0
PSCL4 TRANSLATION FROM L1D PREFETCHER ACCESS:    1716529  HIT:    1716529  MISS:          0  HIT %:        100  MISS %:          0   MPKI: 0
PSCL4 PREFETCH  REQUESTED:          0  ISSUED:          0  USEFUL:          0  USELESS:          0
PSCL4 USEFUL LOAD PREFETCHES:          0 PREFETCH ISSUED TO LOWER LEVEL:          0  ACCURACY: -nan
PSCL4 TIMELY PREFETCHES:          0 LATE PREFETCHES: 0 DROPPED PREFETCHES: 0
PSCL4 PREFETCHES SAME FILL-ORIGIN LEVEL: 0 DIFFERENT FILL-ORIGIN LEVEL: 0

PSCL3 TOTAL     ACCESS:    1742047  HIT:    1742047  MISS:          0  HIT %:        100  MISS %:          0   MPKI: 0
PSCL3 LOAD TRANSLATION ACCESS:      25518  HIT:      25518  MISS:          0  HIT %:        100  MISS %:          0   MPKI: 0
PSCL3 TRANSLATION FROM L1D PREFETCHER ACCESS:    1716529  HIT:    1716529  MISS:          0  HIT %:        100  MISS %:          0   MPKI: 0
PSCL3 PREFETCH  REQUESTED:          0  ISSUED:          0  USEFUL:          0  USELESS:          0
PSCL3 USEFUL LOAD PREFETCHES:          0 PREFETCH ISSUED TO LOWER LEVEL:          0  ACCURACY: -nan
PSCL3 TIMELY PREFETCHES:          0 LATE PREFETCHES: 0 DROPPED PREFETCHES: 0
PSCL3 PREFETCHES SAME FILL-ORIGIN LEVEL: 0 DIFFERENT FILL-ORIGIN LEVEL: 0

PSCL2 TOTAL     ACCESS:    1738911  HIT:    1738826  MISS:         85  HIT %:    99.9951  MISS %: 0.00488812   MPKI: 0.000425
PSCL2 LOAD TRANSLATION ACCESS:      25545  HIT:      25460  MISS:         85  HIT %:    99.6673  MISS %:   0.332746   MPKI: 0.000425
PSCL2 TRANSLATION FROM L1D PREFETCHER ACCESS:    1713366  HIT:    1713366  MISS:          0  HIT %:        100  MISS %:          0   MPKI: 0
PSCL2 PREFETCH  REQUESTED:          0  ISSUED:          0  USEFUL:          0  USELESS:          0
PSCL2 USEFUL LOAD PREFETCHES:          0 PREFETCH ISSUED TO LOWER LEVEL:          0  ACCURACY: -nan
PSCL2 TIMELY PREFETCHES:          0 LATE PREFETCHES: 0 DROPPED PREFETCHES: 0
PSCL2 PREFETCHES SAME FILL-ORIGIN LEVEL: 0 DIFFERENT FILL-ORIGIN LEVEL: 0

LLC TOTAL     ACCESS:   26929515  HIT:   13050709  MISS:   13878806  HIT %:    48.4625  MISS %:    51.5375   MPKI: 69.394
LLC LOAD      ACCESS:   22625771  HIT:   12429138  MISS:   10196633  HIT %:    54.9335  MISS %:    45.0665   MPKI: 50.9832
LLC RFO       ACCESS:      65397  HIT:      23642  MISS:      41755  HIT %:    36.1515  MISS %:    63.8485   MPKI: 0.208775
LLC PREFETCH  ACCESS:    4091933  HIT:     477020  MISS:    3614913  HIT %:    11.6576  MISS %:    88.3424   MPKI: 18.0746
LLC WRITEBACK ACCESS:     138119  HIT:     118730  MISS:      19389  HIT %:    85.9621  MISS %:    14.0379   MPKI: 0.096945
LLC LOAD TRANSLATION ACCESS:        265  HIT:         20  MISS:        245  HIT %:    7.54717  MISS %:    92.4528   MPKI: 0.001225
LLC TRANSLATION FROM L1D PREFETCHER ACCESS:       8030  HIT:       2159  MISS:       5871  HIT %:    26.8867  MISS %:    73.1133   MPKI: 0.029355
LLC PREFETCH  REQUESTED:          0  ISSUED:          0  USEFUL:     277225  USELESS:  174543026
LLC USEFUL LOAD PREFETCHES:     277225 PREFETCH ISSUED TO LOWER LEVEL:  173035566  ACCURACY: 0.160213
LLC TIMELY PREFETCHES:     277225 LATE PREFETCHES: 0 DROPPED PREFETCHES: 0
LLC PREFETCHES SAME FILL-ORIGIN LEVEL: 0 DIFFERENT FILL-ORIGIN LEVEL: 0
LLC AVERAGE MISS LATENCY: 11687.1 cycles
LLC RQ	ACCESS:   87804375	FORWARD:          0	MERGED:          0	TO_CACHE:   87804375
LLC WQ	ACCESS:   95807556	FORWARD:          0	MERGED:          0	TO_CACHE:   95807556
LLC PQ	ACCESS:  174047740	FORWARD:          0	MERGED:          0	TO_CACHE:  174047740

LLC Dense regions hint to LLC: 0

RAW hits: 25
Loads Generated: 77350942
Loads sent to L1D: 77350916
Stores Generated: 3305817
Stores sent to L1D: 3305817
Major fault: 0 Minor fault: 34901
Allocated PAGES: 142026

CPU 3 cumulative IPC: 1.13687 instructions: 200000000 cycles: 175922008
ITLB TOTAL     ACCESS:   33214531  HIT:   33214531  MISS:          0  HIT %:        100  MISS %:          0   MPKI: 0
ITLB LOAD TRANSLATION ACCESS:   33214531  HIT:   33214531  MISS:          0  HIT %:        100  MISS %:          0   MPKI: 0
ITLB PREFETCH  REQUESTED:          0  ISSUED:          0  USEFUL:          0  USELESS:          0
ITLB USEFUL LOAD PREFETCHES:          0 PREFETCH ISSUED TO LOWER LEVEL:          0  ACCURACY: -nan
ITLB TIMELY PREFETCHES:          0 LATE PREFETCHES: 0 DROPPED PREFETCHES: 0
ITLB PREFETCHES SAME FILL-ORIGIN LEVEL: 0 DIFFERENT FILL-ORIGIN LEVEL: 0
ITLB AVERAGE MISS LATENCY: -nan cycles
ITLB RQ	ACCESS: 1702297172	FORWARD:          0	MERGED:          0	TO_CACHE: 1702297172

DTLB TOTAL     ACCESS:   18050063  HIT:   18042778  MISS:       7285  HIT %:    99.9596  MISS %:    0.04036   MPKI: 0.036425
DTLB LOAD TRANSLATION ACCESS:   18050063  HIT:   18042778  MISS:       7285  HIT %:    99.9596  MISS %:    0.04036   MPKI: 0.036425
DTLB PREFETCH  REQUESTED:          0  ISSUED:          0  USEFUL:          0  USELESS:          0
DTLB USEFUL LOAD PREFETCHES:          0 PREFETCH ISSUED TO LOWER LEVEL:          0  ACCURACY: -nan
DTLB TIMELY PREFETCHES:          0 LATE PREFETCHES: 0 DROPPED PREFETCHES: 0
DTLB PREFETCHES SAME FILL-ORIGIN LEVEL: 0 DIFFERENT FILL-ORIGIN LEVEL: 0
DTLB AVERAGE MISS LATENCY: 392.82 cycles
DTLB RQ	ACCESS:  960177516	FORWARD:          0	MERGED:   28007612	TO_CACHE:  932169904

STLB TOTAL     ACCESS:   11626565  HIT:   11619280  MISS:       7285  HIT %:    99.9373  MISS %:  0.0626582   MPKI: 0.036425
STLB LOAD TRANSLATION ACCESS:       7285  HIT:       1359  MISS:       5926  HIT %:    18.6548  MISS %:    81.3452   MPKI: 0.02963
STLB TRANSLATION FROM L1D PREFETCHER ACCESS:   11619280  HIT:   11617921  MISS:       1359  HIT %:    99.9883  MISS %:  0.0116961   MPKI: 0.006795
STLB PREFETCH  REQUESTED:          0  ISSUED:          0  USEFUL:     367231  USELESS:          0
STLB USEFUL LOAD PREFETCHES:     367231 PREFETCH ISSUED TO LOWER LEVEL:          0  ACCURACY: inf
STLB TIMELY PREFETCHES:     367231 LATE PREFETCHES: 1324 DROPPED PREFETCHES: 767836
STLB PREFETCHES SAME FILL-ORIGIN LEVEL: 0 DIFFERENT FILL-ORIGIN LEVEL: 0
STLB AVERAGE MISS LATENCY: 5770.62 cycles
STLB RQ	ACCESS: 3713970472	FORWARD:          0	MERGED: 3016949921	TO_CACHE:  697020551

STLB Hit, L1D data hit: 0
STLB Hit, L2C data hit: 0
STLB Hit, LLC data hit: 0
STLB Hit, LLC data miss: 0
STLB STLB hints to L2: 0
L1D TOTAL     ACCESS:   71377256  HIT:   70911095  MISS:     466161  HIT %:    99.3469  MISS %:   0.653095   MPKI: 2.3308
L1D LOAD      ACCESS:   14340207  HIT:   14328544  MISS:      11663  HIT %:    99.9187  MISS %:  0.0813308   MPKI: 0.058315
L1D RFO       ACCESS:    4200044  HIT:    4200043  MISS:          1  HIT %:        100  MISS %: 2.38093e-05   MPKI: 5e-06
L1D PREFETCH  ACCESS:   52837005  HIT:   52382508  MISS:     454497  HIT %:    99.1398  MISS %:   0.860187   MPKI: 2.27249
L1D PREFETCH  REQUESTED: 9595615883  ISSUED: 9593289250  USEFUL:   23842585  USELESS:        615
L1D USEFUL LOAD PREFETCHES:   23842585 PREFETCH ISSUED TO LOWER LEVEL:   59554323  ACCURACY: 40.035
L1D TIMELY PREFETCHES:   23842585 LATE PREFETCHES: 37533 DROPPED PREFETCHES: 2268388
L1D PREFETCHES SAME FILL-ORIGIN LEVEL: 23880724 DIFFERENT FILL-ORIGIN LEVEL: 35673599
L1D AVERAGE MISS LATENCY: 32271.8 cycles
L1D RQ	ACCESS: 1528513742	FORWARD:          0	MERGED:  784418505	TO_CACHE:  744095237
L1D WQ	ACCESS:  216082279	FORWARD:          0	MERGED:          0	TO_CACHE:  216082279
L1D PQ	ACCESS: 5879692014	FORWARD:          0	MERGED: 2166094778	TO_CACHE: 3713597236

L1D UNIQUE REGIONS ACCESSED: 0
L1D REGIONS CONFLICTS: 0
L1D Cross Page Prefetch Requests: 503388958
L1D Same Page Prefetch Requests: 5477934730
L1D ROI Sum of L1D PQ occupancy: 44647242429
L1D PREFETCHES PUSHED FROM L2C: 0
L1I TOTAL     ACCESS:   33214530  HIT:   33214530  MISS:          0  HIT %:        100  MISS %:          0   MPKI: 0
L1I LOAD      ACCESS:   33214530  HIT:   33214530  MISS:          0  HIT %:        100  MISS %:          0   MPKI: 0
L1I PREFETCH  REQUESTED:          0  ISSUED:          0  USEFUL:          0  USELESS:          0
L1I USEFUL LOAD PREFETCHES:          0 PREFETCH ISSUED TO LOWER LEVEL:          0  ACCURACY: -nan
L1I TIMELY PREFETCHES:          0 LATE PREFETCHES: 0 DROPPED PREFETCHES: 0
L1I PREFETCHES SAME FILL-ORIGIN LEVEL: 0 DIFFERENT FILL-ORIGIN LEVEL: 0
L1I AVERAGE MISS LATENCY: -nan cycles
L1I RQ	ACCESS: 4097717046	FORWARD:          0	MERGED: 2395419874	TO_CACHE: 1702297172

BTB TOTAL     ACCESS:   59666599  HIT:   59666597  MISS:          2  HIT %:        100  MISS %: 3.35196e-06   MPKI: 1e-05
BTB BRANCH_DIRECT_JUMP	ACCESS:          0  HIT:          0  MISS:          0
BTB BRANCH_INDIRECT	ACCESS:          0  HIT:          0  MISS:          0
BTB BRANCH_CONDITIONAL	ACCESS:   59666599  HIT:   59666597  MISS:          2
BTB BRANCH_DIRECT_CALL	ACCESS:          0  HIT:          0  MISS:          0
BTB BRANCH_INDIRECT_CALL	ACCESS:          0  HIT:          0  MISS:          0
BTB BRANCH_RETURN	ACCESS:          0  HIT:          0  MISS:          0
BTB BRANCH_OTHER ACCESS:          0  HIT:          0  MISS:          0

L2C TOTAL     ACCESS:    2667117  HIT:    2160933  MISS:     506184  HIT %:    81.0213  MISS %:    18.9787   MPKI: 2.53092
L2C LOAD      ACCESS:       2768  HIT:          9  MISS:       2759  HIT %:   0.325145  MISS %:    99.6749   MPKI: 0.013795
L2C DATA LOAD MPKI: 0.013795
L2C INSTRUCTION LOAD MPKI: 0
L2C RFO       ACCESS:          1  HIT:          0  MISS:          1  HIT %:          0  MISS %:        100   MPKI: 5e-06
L2C PREFETCH  ACCESS:    1421796  HIT:     958395  MISS:     463401  HIT %:    67.4073  MISS %:    32.5927   MPKI: 2.317
L2C DATA PREFETCH MPKI: 2.317
L2C INSTRUCTION PREFETCH MPKI: 0
L2C WRITEBACK ACCESS:     466146  HIT:     427046  MISS:      39100  HIT %:    91.6121  MISS %:    8.38793   MPKI: 0.1955
L2C LOAD TRANSLATION ACCESS:       5926  HIT:       5925  MISS:          1  HIT %:    99.9831  MISS %:  0.0168748   MPKI: 5e-06
L2C TRANSLATION FROM L1D PREFETCHER ACCESS:     770480  HIT:     769558  MISS:        922  HIT %:    99.8803  MISS %:   0.119666   MPKI: 0.00461
L2C PREFETCH  REQUESTED:          0  ISSUED:          0  USEFUL:      46723  USELESS:   23880569
L2C USEFUL LOAD PREFETCHES:      46723 PREFETCH ISSUED TO LOWER LEVEL:   23880826  ACCURACY: 0.195651
L2C TIMELY PREFETCHES:      46723 LATE PREFETCHES: 1 DROPPED PREFETCHES: 0
L2C PREFETCHES SAME FILL-ORIGIN LEVEL: 1760100 DIFFERENT FILL-ORIGIN LEVEL: 0
L2C AVERAGE MISS LATENCY: 31280 cycles
L2C RQ	ACCESS:    1145306	FORWARD:          0	MERGED:          0	TO_CACHE:    1145306
L2C WQ	ACCESS:   23883058	FORWARD:          0	MERGED:          0	TO_CACHE:   23883058
L2C PQ	ACCESS:   59554323	FORWARD:          0	MERGED:       8208	TO_CACHE:   59546115

L2C Instructions Evicting Data 0
L2C Translations Evicting Data 46777
L2C Data Evicting Data 23841620
L2C Instructions Evicting Instructions 0
L2C Translations Evicting Instructions 0
L2C Data Evicting Instructions 0
L2C Instructions Evicting Translations 0
L2C Translations Evicting Translations 2
L2C Data Evicting Translations 42070
L2C Dense regions hint from L2: 0
PSCL5 TOTAL     ACCESS:     776406  HIT:     776406  MISS:          0  HIT %:        100  MISS %:          0   MPKI: 0
PSCL5 LOAD TRANSLATION ACCESS:       5926  HIT:       5926  MISS:          0  HIT %:        100  MISS %:          0   MPKI: 0
PSCL5 TRANSLATION FROM L1D PREFETCHER ACCESS:     770480  HIT:     770480  MISS:          0  HIT %:        100  MISS %:          0   MPKI: 0
PSCL5 PREFETCH  REQUESTED:          0  ISSUED:          0  USEFUL:          0  USELESS:          0
PSCL5 USEFUL LOAD PREFETCHES:          0 PREFETCH ISSUED TO LOWER LEVEL:          0  ACCURACY: -nan
PSCL5 TIMELY PREFETCHES:          0 LATE PREFETCHES: 0 DROPPED PREFETCHES: 0
PSCL5 PREFETCHES SAME FILL-ORIGIN LEVEL: 0 DIFFERENT FILL-ORIGIN LEVEL: 0

PSCL4 TOTAL     ACCESS:     776406  HIT:     776406  MISS:          0  HIT %:        100  MISS %:          0   MPKI: 0
PSCL4 LOAD TRANSLATION ACCESS:       5926  HIT:       5926  MISS:          0  HIT %:        100  MISS %:          0   MPKI: 0
PSCL4 TRANSLATION FROM L1D PREFETCHER ACCESS:     770480  HIT:     770480  MISS:          0  HIT %:        100  MISS %:          0   MPKI: 0
PSCL4 PREFETCH  REQUESTED:          0  ISSUED:          0  USEFUL:          0  USELESS:          0
PSCL4 USEFUL LOAD PREFETCHES:          0 PREFETCH ISSUED TO LOWER LEVEL:          0  ACCURACY: -nan
PSCL4 TIMELY PREFETCHES:          0 LATE PREFETCHES: 0 DROPPED PREFETCHES: 0
PSCL4 PREFETCHES SAME FILL-ORIGIN LEVEL: 0 DIFFERENT FILL-ORIGIN LEVEL: 0

PSCL3 TOTAL     ACCESS:     776406  HIT:     776406  MISS:          0  HIT %:        100  MISS %:          0   MPKI: 0
PSCL3 LOAD TRANSLATION ACCESS:       5926  HIT:       5926  MISS:          0  HIT %:        100  MISS %:          0   MPKI: 0
PSCL3 TRANSLATION FROM L1D PREFETCHER ACCESS:     770480  HIT:     770480  MISS:          0  HIT %:        100  MISS %:          0   MPKI: 0
PSCL3 PREFETCH  REQUESTED:          0  ISSUED:          0  USEFUL:          0  USELESS:          0
PSCL3 USEFUL LOAD PREFETCHES:          0 PREFETCH ISSUED TO LOWER LEVEL:          0  ACCURACY: -nan
PSCL3 TIMELY PREFETCHES:          0 LATE PREFETCHES: 0 DROPPED PREFETCHES: 0
PSCL3 PREFETCHES SAME FILL-ORIGIN LEVEL: 0 DIFFERENT FILL-ORIGIN LEVEL: 0

PSCL2 TOTAL     ACCESS:     775105  HIT:     775093  MISS:         12  HIT %:    99.9985  MISS %: 0.00154818   MPKI: 6e-05
PSCL2 LOAD TRANSLATION ACCESS:       5926  HIT:       5914  MISS:         12  HIT %:    99.7975  MISS %:   0.202497   MPKI: 6e-05
PSCL2 TRANSLATION FROM L1D PREFETCHER ACCESS:     769179  HIT:     769179  MISS:          0  HIT %:        100  MISS %:          0   MPKI: 0
PSCL2 PREFETCH  REQUESTED:          0  ISSUED:          0  USEFUL:          0  USELESS:          0
PSCL2 USEFUL LOAD PREFETCHES:          0 PREFETCH ISSUED TO LOWER LEVEL:          0  ACCURACY: -nan
PSCL2 TIMELY PREFETCHES:          0 LATE PREFETCHES: 0 DROPPED PREFETCHES: 0
PSCL2 PREFETCHES SAME FILL-ORIGIN LEVEL: 0 DIFFERENT FILL-ORIGIN LEVEL: 0

LLC TOTAL     ACCESS:     933233  HIT:     372695  MISS:     560538  HIT %:    39.9359  MISS %:    60.0641   MPKI: 2.80269
LLC LOAD      ACCESS:       2759  HIT:          0  MISS:       2759  HIT %:          0  MISS %:        100   MPKI: 0.013795
LLC RFO       ACCESS:          1  HIT:          0  MISS:          1  HIT %:          0  MISS %:        100   MPKI: 5e-06
LLC PREFETCH  ACCESS:     463401  HIT:          0  MISS:     463401  HIT %:          0  MISS %:        100   MPKI: 2.317
LLC WRITEBACK ACCESS:     466149  HIT:     372694  MISS:      93455  HIT %:    79.9517  MISS %:    20.0483   MPKI: 0.467275
LLC LOAD TRANSLATION ACCESS:          1  HIT:          0  MISS:          1  HIT %:          0  MISS %:        100   MPKI: 5e-06
LLC TRANSLATION FROM L1D PREFETCHER ACCESS:        922  HIT:          1  MISS:        921  HIT %:    0.10846  MISS %:    99.8915   MPKI: 0.004605
LLC PREFETCH  REQUESTED:          0  ISSUED:          0  USEFUL:     277225  USELESS:  174543026
LLC USEFUL LOAD PREFETCHES:     277225 PREFETCH ISSUED TO LOWER LEVEL:  173035566  ACCURACY: 0.160213
LLC TIMELY PREFETCHES:     277225 LATE PREFETCHES: 0 DROPPED PREFETCHES: 0
LLC PREFETCHES SAME FILL-ORIGIN LEVEL: 0 DIFFERENT FILL-ORIGIN LEVEL: 0
LLC AVERAGE MISS LATENCY: 289369 cycles
LLC RQ	ACCESS:   87804375	FORWARD:          0	MERGED:          0	TO_CACHE:   87804375
LLC WQ	ACCESS:   95807556	FORWARD:          0	MERGED:          0	TO_CACHE:   95807556
LLC PQ	ACCESS:  174047740	FORWARD:          0	MERGED:          0	TO_CACHE:  174047740

LLC Dense regions hint to LLC: 0

RAW hits: 0
Loads Generated: 29833298
Loads sent to L1D: 29833296
Stores Generated: 4200045
Stores sent to L1D: 4200045
Major fault: 0 Minor fault: 9127
Allocated PAGES: 142026

DRAM Statistics
 CHANNEL 0
 RQ ROW_BUFFER_HIT:  113509302  ROW_BUFFER_MISS:  134662919
 DBUS_CONGESTED:         32
 WQ ROW_BUFFER_HIT:   19636788  ROW_BUFFER_MISS:   76098386  FULL:       2762

 AVG_CONGESTED_CYCLE: 4
 All warmup complete: 5
Channel 0 Bank busy for read cycles: 0
Channel 0 Bank busy for write cycles: 0
Channel 0
Rank 0
0banks busy for read cycles: 622875
0banks busy for write cycles: 2332
1banks busy for read cycles: 82273876
1banks busy for write cycles: 10501570
2banks busy for read cycles: 274253800
2banks busy for write cycles: 41094481
3banks busy for read cycles: 689903019
3banks busy for write cycles: 1256509304
4banks busy for read cycles: 1087039107
4banks busy for write cycles: 493122622
5banks busy for read cycles: 1143437562
5banks busy for write cycles: 307522287
6banks busy for read cycles: 1063527570
6banks busy for write cycles: 167163575
7banks busy for read cycles: 741780527
7banks busy for write cycles: 164181870
8banks busy for read cycles: 501188322
8banks busy for write cycles: 733709480

CPU 0 Branch Prediction Accuracy: 99.9998% MPKI: 8.71975e-05 Average ROB Occupancy at Mispredict: 142.317
Branch types
NOT_BRANCH: 7758944439 95.6145%
BRANCH_DIRECT_JUMP: 890 1.09676e-05%
BRANCH_INDIRECT: 0 0%
BRANCH_CONDITIONAL: 297709304 3.66871%
BRANCH_DIRECT_CALL: 29083453 0.358399%
BRANCH_INDIRECT_CALL: 0 0%
BRANCH_RETURN: 29083454 0.358399%
BRANCH_OTHER: 0 0%


CPU 1 Branch Prediction Accuracy: 97.5994% MPKI: 7.22836 Average ROB Occupancy at Mispredict: 79.3389
Branch types
NOT_BRANCH: 5143101852 69.729%
BRANCH_DIRECT_JUMP: 299229775 4.05689%
BRANCH_INDIRECT: 0 0%
BRANCH_CONDITIONAL: 1870764353 25.3634%
BRANCH_DIRECT_CALL: 31374973 0.425375%
BRANCH_INDIRECT_CALL: 0 0%
BRANCH_RETURN: 31374973 0.425375%
BRANCH_OTHER: 0 0%


CPU 2 Branch Prediction Accuracy: 96.9509% MPKI: 5.6443 Average ROB Occupancy at Mispredict: 140.113
Branch types
NOT_BRANCH: 162977012 81.4885%
BRANCH_DIRECT_JUMP: 66 3.3e-05%
BRANCH_INDIRECT: 4 2e-06%
BRANCH_CONDITIONAL: 37022851 18.5114%
BRANCH_DIRECT_CALL: 28 1.4e-05%
BRANCH_INDIRECT_CALL: 5 2.5e-06%
BRANCH_RETURN: 33 1.65e-05%
BRANCH_OTHER: 0 0%


CPU 3 Branch Prediction Accuracy: 99.6865% MPKI: 0.997214 Average ROB Occupancy at Mispredict: 24.9427
Branch types
NOT_BRANCH: 6978384170 68.0719%
BRANCH_DIRECT_JUMP: 0 0%
BRANCH_INDIRECT: 0 0%
BRANCH_CONDITIONAL: 3273109807 31.9281%
BRANCH_DIRECT_CALL: 0 0%
BRANCH_INDIRECT_CALL: 0 0%
BRANCH_RETURN: 0 0%
BRANCH_OTHER: 0 0%

DRAM PAGES: 1048576
Allocated PAGES: 142026
