
*** ChampSim Multicore Out-of-Order Simulator ***

Warmup Instructions: 50000000
Simulation Instructions: 200000000
Number of CPUs: 4
LLC sets: 8192
LLC ways: 16
Off-chip DRAM Size: 4096 MB Channels: 1 Width: 64-bit Data Rate: 6400 MT/s
CPU 0 runs ./traces/spec/482.sphinx3-1297B.champsimtrace.xz
.xz
CPU 1 runs ./traces/spec/482.sphinx3-1297B.champsimtrace.xz
.xz
CPU 2 runs ./traces/spec/482.sphinx3-1297B.champsimtrace.xz
.xz
CPU 3 runs ./traces/spec/482.sphinx3-1297B.champsimtrace.xz
.xz
BTB has LRU replacement policy
ITLB has LRU replacement policy
DTLB has LRU replacement policy
STLB has LRU replacement policy
L1I has LRU replacement policy
History Sets: 8
History Ways: 16
BERTI Size: 16
BERTI Stride Size: 8
L1D has LRU replacement policy
Initialize SRRIP state for L2C
Initialize DRRIP state for LLC
BTB has LRU replacement policy
ITLB has LRU replacement policy
DTLB has LRU replacement policy
STLB has LRU replacement policy
L1I has LRU replacement policy
History Sets: 8
History Ways: 16
BERTI Size: 16
BERTI Stride Size: 8
L1D has LRU replacement policy
Initialize SRRIP state for L2C
Initialize DRRIP state for LLC
BTB has LRU replacement policy
ITLB has LRU replacement policy
DTLB has LRU replacement policy
STLB has LRU replacement policy
L1I has LRU replacement policy
History Sets: 8
History Ways: 16
BERTI Size: 16
BERTI Stride Size: 8
L1D has LRU replacement policy
Initialize SRRIP state for L2C
Initialize DRRIP state for LLC
BTB has LRU replacement policy
ITLB has LRU replacement policy
DTLB has LRU replacement policy
STLB has LRU replacement policy
L1I has LRU replacement policy
History Sets: 8
History Ways: 16
BERTI Size: 16
BERTI Stride Size: 8
L1D has LRU replacement policy
Initialize SRRIP state for L2C
Initialize DRRIP state for LLC
Heartbeat CPU 0 instructions: 10000001 cycles: 2890185 heartbeat IPC: 3.45999 cumulative IPC: 3.45999 (Simulation time: 0 hr 2 min 56 sec) 
Heartbeat CPU 3 instructions: 10000001 cycles: 2890703 heartbeat IPC: 3.45937 cumulative IPC: 3.45937 (Simulation time: 0 hr 2 min 57 sec) 
Heartbeat CPU 2 instructions: 10000001 cycles: 2891055 heartbeat IPC: 3.45895 cumulative IPC: 3.45895 (Simulation time: 0 hr 2 min 57 sec) 
Heartbeat CPU 1 instructions: 10000001 cycles: 2891111 heartbeat IPC: 3.45888 cumulative IPC: 3.45888 (Simulation time: 0 hr 2 min 57 sec) 
Heartbeat CPU 0 instructions: 20000003 cycles: 5737097 heartbeat IPC: 3.51258 cumulative IPC: 3.48608 (Simulation time: 0 hr 6 min 7 sec) 
Heartbeat CPU 3 instructions: 20000003 cycles: 5737762 heartbeat IPC: 3.5124 cumulative IPC: 3.48568 (Simulation time: 0 hr 6 min 7 sec) 
Heartbeat CPU 2 instructions: 20000003 cycles: 5738475 heartbeat IPC: 3.51195 cumulative IPC: 3.48525 (Simulation time: 0 hr 6 min 7 sec) 
Heartbeat CPU 1 instructions: 20000003 cycles: 5738578 heartbeat IPC: 3.51189 cumulative IPC: 3.48518 (Simulation time: 0 hr 6 min 7 sec) 
Heartbeat CPU 0 instructions: 30000002 cycles: 8564134 heartbeat IPC: 3.53727 cumulative IPC: 3.50298 (Simulation time: 0 hr 9 min 8 sec) 
Heartbeat CPU 2 instructions: 30000002 cycles: 8564540 heartbeat IPC: 3.53849 cumulative IPC: 3.50282 (Simulation time: 0 hr 9 min 8 sec) 
Heartbeat CPU 3 instructions: 30000002 cycles: 8564916 heartbeat IPC: 3.53713 cumulative IPC: 3.50266 (Simulation time: 0 hr 9 min 8 sec) 
Heartbeat CPU 1 instructions: 30000002 cycles: 8565459 heartbeat IPC: 3.53747 cumulative IPC: 3.50244 (Simulation time: 0 hr 9 min 8 sec) 
Heartbeat CPU 2 instructions: 40000000 cycles: 11452248 heartbeat IPC: 3.46295 cumulative IPC: 3.49276 (Simulation time: 0 hr 11 min 56 sec) 
Heartbeat CPU 3 instructions: 40000000 cycles: 11452668 heartbeat IPC: 3.4629 cumulative IPC: 3.49264 (Simulation time: 0 hr 11 min 56 sec) 
Heartbeat CPU 1 instructions: 40000000 cycles: 11452823 heartbeat IPC: 3.46337 cumulative IPC: 3.49259 (Simulation time: 0 hr 11 min 56 sec) 
Heartbeat CPU 0 instructions: 40000000 cycles: 11453637 heartbeat IPC: 3.4608 cumulative IPC: 3.49234 (Simulation time: 0 hr 11 min 56 sec) 
Heartbeat CPU 1 instructions: 50000001 cycles: 14283573 heartbeat IPC: 3.53263 cumulative IPC: 3.50052 (Simulation time: 0 hr 14 min 48 sec) 
Heartbeat CPU 2 instructions: 50000001 cycles: 14283678 heartbeat IPC: 3.53178 cumulative IPC: 3.5005 (Simulation time: 0 hr 14 min 48 sec) 
Heartbeat CPU 3 instructions: 50000001 cycles: 14284055 heartbeat IPC: 3.53184 cumulative IPC: 3.50041 (Simulation time: 0 hr 14 min 48 sec) 
Heartbeat CPU 0 instructions: 50000001 cycles: 14284546 heartbeat IPC: 3.53243 cumulative IPC: 3.50029 (Simulation time: 0 hr 14 min 48 sec) 

Warmup complete CPU 0 instructions: 50000001 cycles: 14284546 (Simulation time: 0 hr 14 min 48 sec) 
Warmup complete CPU 1 instructions: 50003613 cycles: 14284545 (Simulation time: 0 hr 14 min 48 sec) 
Warmup complete CPU 2 instructions: 50003227 cycles: 14284545 (Simulation time: 0 hr 14 min 48 sec) 
Warmup complete CPU 3 instructions: 50001830 cycles: 14284545 (Simulation time: 0 hr 14 min 48 sec) 

Heartbeat CPU 3 instructions: 60000000 cycles: 28206327 heartbeat IPC: 0.718274 cumulative IPC: 0.718167 (Simulation time: 0 hr 19 min 6 sec) 
Heartbeat CPU 0 instructions: 60000000 cycles: 28207387 heartbeat IPC: 0.718244 cumulative IPC: 0.718244 (Simulation time: 0 hr 19 min 6 sec) 
Heartbeat CPU 2 instructions: 60000000 cycles: 28242603 heartbeat IPC: 0.716387 cumulative IPC: 0.716201 (Simulation time: 0 hr 19 min 7 sec) 
Heartbeat CPU 1 instructions: 60000000 cycles: 28402537 heartbeat IPC: 0.708267 cumulative IPC: 0.70806 (Simulation time: 0 hr 19 min 9 sec) 
Heartbeat CPU 2 instructions: 70000001 cycles: 41508101 heartbeat IPC: 0.753835 cumulative IPC: 0.734539 (Simulation time: 0 hr 22 min 52 sec) 
Heartbeat CPU 3 instructions: 70000002 cycles: 41596087 heartbeat IPC: 0.74684 cumulative IPC: 0.732224 (Simulation time: 0 hr 22 min 55 sec) 
Heartbeat CPU 1 instructions: 70000002 cycles: 41775168 heartbeat IPC: 0.747796 cumulative IPC: 0.727389 (Simulation time: 0 hr 22 min 59 sec) 
Heartbeat CPU 0 instructions: 70000002 cycles: 41853438 heartbeat IPC: 0.732813 cumulative IPC: 0.725455 (Simulation time: 0 hr 23 min 1 sec) 
Heartbeat CPU 2 instructions: 80000000 cycles: 54735876 heartbeat IPC: 0.755985 cumulative IPC: 0.741552 (Simulation time: 0 hr 26 min 47 sec) 
Heartbeat CPU 3 instructions: 80000000 cycles: 54737835 heartbeat IPC: 0.760934 cumulative IPC: 0.741551 (Simulation time: 0 hr 26 min 47 sec) 
Heartbeat CPU 1 instructions: 80000000 cycles: 54778979 heartbeat IPC: 0.769005 cumulative IPC: 0.740753 (Simulation time: 0 hr 26 min 47 sec) 
Heartbeat CPU 0 instructions: 80000000 cycles: 55128578 heartbeat IPC: 0.753288 cumulative IPC: 0.734501 (Simulation time: 0 hr 26 min 51 sec) 
Heartbeat CPU 3 instructions: 90000001 cycles: 68991723 heartbeat IPC: 0.701563 cumulative IPC: 0.731132 (Simulation time: 0 hr 30 min 54 sec) 
Heartbeat CPU 2 instructions: 90000001 cycles: 69025693 heartbeat IPC: 0.699799 cumulative IPC: 0.730653 (Simulation time: 0 hr 30 min 55 sec) 
Heartbeat CPU 1 instructions: 90000001 cycles: 69036831 heartbeat IPC: 0.701368 cumulative IPC: 0.730497 (Simulation time: 0 hr 30 min 55 sec) 
Heartbeat CPU 0 instructions: 90000001 cycles: 69418834 heartbeat IPC: 0.699778 cumulative IPC: 0.725501 (Simulation time: 0 hr 31 min 4 sec) 
Heartbeat CPU 0 instructions: 100000003 cycles: 80435064 heartbeat IPC: 0.907752 cumulative IPC: 0.755852 (Simulation time: 0 hr 34 min 38 sec) 
Heartbeat CPU 3 instructions: 100000003 cycles: 80493178 heartbeat IPC: 0.869455 cumulative IPC: 0.755161 (Simulation time: 0 hr 34 min 39 sec) 
Heartbeat CPU 2 instructions: 100000003 cycles: 80519465 heartbeat IPC: 0.870037 cumulative IPC: 0.75484 (Simulation time: 0 hr 34 min 39 sec) 
Heartbeat CPU 1 instructions: 100000003 cycles: 80613365 heartbeat IPC: 0.863817 cumulative IPC: 0.753766 (Simulation time: 0 hr 34 min 41 sec) 
Heartbeat CPU 2 instructions: 110000000 cycles: 93056951 heartbeat IPC: 0.797608 cumulative IPC: 0.761647 (Simulation time: 0 hr 38 min 38 sec) 
Heartbeat CPU 0 instructions: 110000000 cycles: 93086337 heartbeat IPC: 0.790434 cumulative IPC: 0.761404 (Simulation time: 0 hr 38 min 39 sec) 
Heartbeat CPU 3 instructions: 110000000 cycles: 93183612 heartbeat IPC: 0.787995 cumulative IPC: 0.760442 (Simulation time: 0 hr 38 min 41 sec) 
Heartbeat CPU 1 instructions: 110000000 cycles: 93458306 heartbeat IPC: 0.778516 cumulative IPC: 0.757781 (Simulation time: 0 hr 38 min 46 sec) 
Heartbeat CPU 3 instructions: 120000002 cycles: 103346284 heartbeat IPC: 0.983993 cumulative IPC: 0.785951 (Simulation time: 0 hr 42 min 19 sec) 
Heartbeat CPU 0 instructions: 120000002 cycles: 103347034 heartbeat IPC: 0.974593 cumulative IPC: 0.785965 (Simulation time: 0 hr 42 min 19 sec) 
Heartbeat CPU 2 instructions: 120000001 cycles: 103414754 heartbeat IPC: 0.965456 cumulative IPC: 0.785332 (Simulation time: 0 hr 42 min 20 sec) 
Heartbeat CPU 1 instructions: 120000001 cycles: 104192338 heartbeat IPC: 0.931616 cumulative IPC: 0.778535 (Simulation time: 0 hr 42 min 30 sec) 
Heartbeat CPU 3 instructions: 130000000 cycles: 111721157 heartbeat IPC: 1.19405 cumulative IPC: 0.821028 (Simulation time: 0 hr 45 min 39 sec) 
Heartbeat CPU 0 instructions: 130000000 cycles: 111732713 heartbeat IPC: 1.19251 cumulative IPC: 0.820949 (Simulation time: 0 hr 45 min 39 sec) 
Heartbeat CPU 2 instructions: 130000000 cycles: 111825219 heartbeat IPC: 1.18899 cumulative IPC: 0.820138 (Simulation time: 0 hr 45 min 40 sec) 
Heartbeat CPU 1 instructions: 130000000 cycles: 112713497 heartbeat IPC: 1.17355 cumulative IPC: 0.812732 (Simulation time: 0 hr 45 min 59 sec) 
Heartbeat CPU 0 instructions: 140000000 cycles: 120553162 heartbeat IPC: 1.13373 cumulative IPC: 0.84691 (Simulation time: 0 hr 49 min 7 sec) 
Heartbeat CPU 3 instructions: 140000002 cycles: 120575285 heartbeat IPC: 1.12942 cumulative IPC: 0.846717 (Simulation time: 0 hr 49 min 8 sec) 
Heartbeat CPU 2 instructions: 140000001 cycles: 120679261 heartbeat IPC: 1.12943 cumulative IPC: 0.845876 (Simulation time: 0 hr 49 min 10 sec) 
Heartbeat CPU 1 instructions: 140000001 cycles: 121750386 heartbeat IPC: 1.10658 cumulative IPC: 0.837442 (Simulation time: 0 hr 49 min 30 sec) 
Heartbeat CPU 0 instructions: 150000000 cycles: 129872012 heartbeat IPC: 1.07309 cumulative IPC: 0.865146 (Simulation time: 0 hr 52 min 49 sec) 
Heartbeat CPU 3 instructions: 150000000 cycles: 129898285 heartbeat IPC: 1.07262 cumulative IPC: 0.864933 (Simulation time: 0 hr 52 min 50 sec) 
Heartbeat CPU 2 instructions: 150000000 cycles: 130067764 heartbeat IPC: 1.06513 cumulative IPC: 0.863655 (Simulation time: 0 hr 52 min 56 sec) 
Heartbeat CPU 1 instructions: 150000000 cycles: 131315473 heartbeat IPC: 1.04547 cumulative IPC: 0.854444 (Simulation time: 0 hr 53 min 21 sec) 
Heartbeat CPU 0 instructions: 160000002 cycles: 140143340 heartbeat IPC: 0.973584 cumulative IPC: 0.873995 (Simulation time: 0 hr 56 min 38 sec) 
Heartbeat CPU 3 instructions: 160000002 cycles: 140172486 heartbeat IPC: 0.973312 cumulative IPC: 0.873778 (Simulation time: 0 hr 56 min 39 sec) 
Heartbeat CPU 2 instructions: 160000002 cycles: 140326536 heartbeat IPC: 0.974776 cumulative IPC: 0.872699 (Simulation time: 0 hr 56 min 43 sec) 
Heartbeat CPU 1 instructions: 160000002 cycles: 141767846 heartbeat IPC: 0.956721 cumulative IPC: 0.86283 (Simulation time: 0 hr 57 min 16 sec) 
Heartbeat CPU 0 instructions: 170000001 cycles: 151040432 heartbeat IPC: 0.917676 cumulative IPC: 0.877476 (Simulation time: 1 hr 0 min 9 sec) 
Heartbeat CPU 3 instructions: 170000001 cycles: 151056951 heartbeat IPC: 0.918741 cumulative IPC: 0.877357 (Simulation time: 1 hr 0 min 9 sec) 
Heartbeat CPU 2 instructions: 170000001 cycles: 151211388 heartbeat IPC: 0.918708 cumulative IPC: 0.876357 (Simulation time: 1 hr 0 min 11 sec) 
Heartbeat CPU 1 instructions: 170000001 cycles: 152706527 heartbeat IPC: 0.914187 cumulative IPC: 0.866888 (Simulation time: 1 hr 0 min 42 sec) 
Heartbeat CPU 0 instructions: 180000001 cycles: 162347450 heartbeat IPC: 0.884407 cumulative IPC: 0.878005 (Simulation time: 1 hr 3 min 31 sec) 
Heartbeat CPU 3 instructions: 180000001 cycles: 162414713 heartbeat IPC: 0.880455 cumulative IPC: 0.877594 (Simulation time: 1 hr 3 min 33 sec) 
Heartbeat CPU 2 instructions: 180000003 cycles: 162593645 heartbeat IPC: 0.878561 cumulative IPC: 0.876526 (Simulation time: 1 hr 3 min 37 sec) 
Heartbeat CPU 1 instructions: 180000001 cycles: 164707804 heartbeat IPC: 0.833245 cumulative IPC: 0.864204 (Simulation time: 1 hr 4 min 8 sec) 
Heartbeat CPU 2 instructions: 190000003 cycles: 176256929 heartbeat IPC: 0.731888 cumulative IPC: 0.864325 (Simulation time: 1 hr 7 min 17 sec) 
Heartbeat CPU 0 instructions: 190000003 cycles: 176331256 heartbeat IPC: 0.715113 cumulative IPC: 0.863948 (Simulation time: 1 hr 7 min 19 sec) 
Heartbeat CPU 3 instructions: 190000003 cycles: 176397790 heartbeat IPC: 0.71515 cumulative IPC: 0.863583 (Simulation time: 1 hr 7 min 20 sec) 
Heartbeat CPU 1 instructions: 190000003 cycles: 178847207 heartbeat IPC: 0.707244 cumulative IPC: 0.850718 (Simulation time: 1 hr 7 min 55 sec) 
Heartbeat CPU 2 instructions: 200000001 cycles: 189943597 heartbeat IPC: 0.730638 cumulative IPC: 0.853909 (Simulation time: 1 hr 11 min 19 sec) 
Heartbeat CPU 0 instructions: 200000001 cycles: 189953243 heartbeat IPC: 0.734107 cumulative IPC: 0.85388 (Simulation time: 1 hr 11 min 19 sec) 
Heartbeat CPU 3 instructions: 200000001 cycles: 189971133 heartbeat IPC: 0.736738 cumulative IPC: 0.853783 (Simulation time: 1 hr 11 min 19 sec) 
Heartbeat CPU 1 instructions: 200000001 cycles: 193219858 heartbeat IPC: 0.695766 cumulative IPC: 0.838272 (Simulation time: 1 hr 12 min 32 sec) 
Heartbeat CPU 2 instructions: 210000000 cycles: 201282480 heartbeat IPC: 0.881921 cumulative IPC: 0.855607 (Simulation time: 1 hr 14 min 59 sec) 
Heartbeat CPU 3 instructions: 210000002 cycles: 201407946 heartbeat IPC: 0.87437 cumulative IPC: 0.855041 (Simulation time: 1 hr 15 min 2 sec) 
Heartbeat CPU 0 instructions: 210000000 cycles: 201416721 heartbeat IPC: 0.872335 cumulative IPC: 0.855011 (Simulation time: 1 hr 15 min 2 sec) 
Heartbeat CPU 1 instructions: 210000002 cycles: 205549984 heartbeat IPC: 0.811022 cumulative IPC: 0.836515 (Simulation time: 1 hr 16 min 22 sec) 
Heartbeat CPU 3 instructions: 220000000 cycles: 213071369 heartbeat IPC: 0.857381 cumulative IPC: 0.855178 (Simulation time: 1 hr 18 min 29 sec) 
Heartbeat CPU 0 instructions: 220000000 cycles: 213164884 heartbeat IPC: 0.851197 cumulative IPC: 0.854785 (Simulation time: 1 hr 18 min 31 sec) 
Heartbeat CPU 2 instructions: 220000000 cycles: 213201644 heartbeat IPC: 0.838985 cumulative IPC: 0.854611 (Simulation time: 1 hr 18 min 32 sec) 
Heartbeat CPU 1 instructions: 220000000 cycles: 217402533 heartbeat IPC: 0.8437 cumulative IPC: 0.836934 (Simulation time: 1 hr 20 min 2 sec) 
Heartbeat CPU 0 instructions: 230000000 cycles: 224461721 heartbeat IPC: 0.885204 cumulative IPC: 0.85642 (Simulation time: 1 hr 22 min 9 sec) 
Heartbeat CPU 3 instructions: 230000000 cycles: 224532510 heartbeat IPC: 0.872513 cumulative IPC: 0.856123 (Simulation time: 1 hr 22 min 10 sec) 
Heartbeat CPU 2 instructions: 230000000 cycles: 224540850 heartbeat IPC: 0.881896 cumulative IPC: 0.856083 (Simulation time: 1 hr 22 min 10 sec) 
Heartbeat CPU 1 instructions: 230000000 cycles: 228955309 heartbeat IPC: 0.865593 cumulative IPC: 0.838476 (Simulation time: 1 hr 23 min 25 sec) 
Heartbeat CPU 0 instructions: 240000003 cycles: 234458694 heartbeat IPC: 1.0003 cumulative IPC: 0.862953 (Simulation time: 1 hr 25 min 29 sec) 
Heartbeat CPU 2 instructions: 240000003 cycles: 234553797 heartbeat IPC: 0.998707 cumulative IPC: 0.862566 (Simulation time: 1 hr 25 min 31 sec) 
Heartbeat CPU 3 instructions: 240000003 cycles: 234700041 heartbeat IPC: 0.983523 cumulative IPC: 0.862 (Simulation time: 1 hr 25 min 33 sec) 
Heartbeat CPU 1 instructions: 240000003 cycles: 239304962 heartbeat IPC: 0.966216 cumulative IPC: 0.844352 (Simulation time: 1 hr 27 min 32 sec) 
Heartbeat CPU 2 instructions: 250000001 cycles: 242609144 heartbeat IPC: 1.24141 cumulative IPC: 0.875932 (Simulation time: 1 hr 28 min 58 sec) 
Finished CPU 2 instructions: 200000003 cycles: 228326274 cumulative IPC: 0.875939 (Simulation time: 1 hr 28 min 58 sec) 
Heartbeat CPU 0 instructions: 250000001 cycles: 242680563 heartbeat IPC: 1.21627 cumulative IPC: 0.875672 (Simulation time: 1 hr 29 min 1 sec) 
Finished CPU 0 instructions: 200000000 cycles: 228396017 cumulative IPC: 0.875672 (Simulation time: 1 hr 29 min 1 sec) 
Heartbeat CPU 3 instructions: 250000001 cycles: 242773792 heartbeat IPC: 1.23858 cumulative IPC: 0.875307 (Simulation time: 1 hr 29 min 4 sec) 
Finished CPU 3 instructions: 200000001 cycles: 228490194 cumulative IPC: 0.875311 (Simulation time: 1 hr 29 min 4 sec) 
Heartbeat CPU 1 instructions: 250000001 cycles: 247580519 heartbeat IPC: 1.20838 cumulative IPC: 0.857265 (Simulation time: 1 hr 31 min 12 sec) 
Finished CPU 1 instructions: 200000000 cycles: 233297841 cumulative IPC: 0.857273 (Simulation time: 1 hr 31 min 12 sec) 

ChampSim completed all CPUs

Total Simulation Statistics (not including warmup)

CPU 0 cumulative IPC: 0.885806 instructions: 206656679 cycles: 233297840
ITLB TOTAL     ACCESS:   33261139  HIT:   33261139  MISS:          0  HIT %:        100  MISS %:          0   MPKI: 0
ITLB LOAD      ACCESS:          0  HIT:          0  MISS:          0  HIT %:       -nan  MISS %:       -nan   MPKI: 0
ITLB RFO       ACCESS:          0  HIT:          0  MISS:          0  HIT %:       -nan  MISS %:       -nan   MPKI: 0
ITLB PREFETCH  ACCESS:          0  HIT:          0  MISS:          0  HIT %:       -nan  MISS %:       -nan   MPKI: 0
ITLB WRITEBACK ACCESS:          0  HIT:          0  MISS:          0  HIT %:       -nan  MISS %:       -nan   MPKI: 0
DTLB TOTAL     ACCESS:   29652202  HIT:   29365691  MISS:     286511  HIT %:    99.0338  MISS %:   0.966239   MPKI: 1.38641
DTLB LOAD      ACCESS:          0  HIT:          0  MISS:          0  HIT %:       -nan  MISS %:       -nan   MPKI: 0
DTLB RFO       ACCESS:          0  HIT:          0  MISS:          0  HIT %:       -nan  MISS %:       -nan   MPKI: 0
DTLB PREFETCH  ACCESS:          0  HIT:          0  MISS:          0  HIT %:       -nan  MISS %:       -nan   MPKI: 0
DTLB WRITEBACK ACCESS:          0  HIT:          0  MISS:          0  HIT %:       -nan  MISS %:       -nan   MPKI: 0
STLB TOTAL     ACCESS:   12077020  HIT:   11973574  MISS:     103446  HIT %:    99.1434  MISS %:   0.856552   MPKI: 0.500569
STLB LOAD      ACCESS:          0  HIT:          0  MISS:          0  HIT %:       -nan  MISS %:       -nan   MPKI: 0
STLB RFO       ACCESS:          0  HIT:          0  MISS:          0  HIT %:       -nan  MISS %:       -nan   MPKI: 0
STLB PREFETCH  ACCESS:          0  HIT:          0  MISS:          0  HIT %:       -nan  MISS %:       -nan   MPKI: 0
STLB WRITEBACK ACCESS:          0  HIT:          0  MISS:          0  HIT %:       -nan  MISS %:       -nan   MPKI: 0
L1D TOTAL     ACCESS:   73934723  HIT:   70645413  MISS:    3289310  HIT %:    95.5511  MISS %:    4.44894   MPKI: 15.9168
L1D LOAD      ACCESS:   30853729  HIT:   29312230  MISS:    1541499  HIT %:    95.0038  MISS %:    4.99615   MPKI: 7.45923
L1D RFO       ACCESS:    4118343  HIT:    3881156  MISS:     237187  HIT %:    94.2407  MISS %:    5.75928   MPKI: 1.14773
L1D PREFETCH  ACCESS:   38962651  HIT:   37452027  MISS:    1510624  HIT %:    96.1229  MISS %:    3.87711   MPKI: 7.30982
L1D WRITEBACK ACCESS:          0  HIT:          0  MISS:          0  HIT %:       -nan  MISS %:       -nan   MPKI: 0
L1I TOTAL     ACCESS:   38967848  HIT:   38967490  MISS:        358  HIT %:    99.9991  MISS %: 0.000918706   MPKI: 0.00173234
L1I LOAD      ACCESS:   38967848  HIT:   38967490  MISS:        358  HIT %:    99.9991  MISS %: 0.000918706   MPKI: 0.00173234
L1I RFO       ACCESS:          0  HIT:          0  MISS:          0  HIT %:       -nan  MISS %:       -nan   MPKI: 0
L1I PREFETCH  ACCESS:          0  HIT:          0  MISS:          0  HIT %:       -nan  MISS %:       -nan   MPKI: 0
L1I WRITEBACK ACCESS:          0  HIT:          0  MISS:          0  HIT %:       -nan  MISS %:       -nan   MPKI: 0
L2C TOTAL     ACCESS:    8490395  HIT:    5522895  MISS:    2967500  HIT %:    65.0487  MISS %:    34.9513   MPKI: 14.3596
L2C LOAD      ACCESS:    1527994  HIT:     776037  MISS:     751957  HIT %:     50.788  MISS %:     49.212   MPKI: 3.63868
L2C RFO       ACCESS:     237162  HIT:      31343  MISS:     205819  HIT %:    13.2159  MISS %:    86.7841   MPKI: 0.995947
L2C PREFETCH  ACCESS:    6284631  HIT:    4356403  MISS:    1928228  HIT %:    69.3184  MISS %:    30.6816   MPKI: 9.33059
L2C WRITEBACK ACCESS:     332571  HIT:     276783  MISS:      55788  HIT %:    83.2252  MISS %:    16.7748   MPKI: 0.269955
PSCL5 TOTAL     ACCESS:     108038  HIT:     108038  MISS:          0  HIT %:        100  MISS %:          0   MPKI: 0
PSCL5 LOAD      ACCESS:          0  HIT:          0  MISS:          0  HIT %:       -nan  MISS %:       -nan   MPKI: 0
PSCL5 RFO       ACCESS:          0  HIT:          0  MISS:          0  HIT %:       -nan  MISS %:       -nan   MPKI: 0
PSCL5 PREFETCH  ACCESS:          0  HIT:          0  MISS:          0  HIT %:       -nan  MISS %:       -nan   MPKI: 0
PSCL5 WRITEBACK ACCESS:          0  HIT:          0  MISS:          0  HIT %:       -nan  MISS %:       -nan   MPKI: 0
PSCL4 TOTAL     ACCESS:     108038  HIT:     108038  MISS:          0  HIT %:        100  MISS %:          0   MPKI: 0
PSCL4 LOAD      ACCESS:          0  HIT:          0  MISS:          0  HIT %:       -nan  MISS %:       -nan   MPKI: 0
PSCL4 RFO       ACCESS:          0  HIT:          0  MISS:          0  HIT %:       -nan  MISS %:       -nan   MPKI: 0
PSCL4 PREFETCH  ACCESS:          0  HIT:          0  MISS:          0  HIT %:       -nan  MISS %:       -nan   MPKI: 0
PSCL4 WRITEBACK ACCESS:          0  HIT:          0  MISS:          0  HIT %:       -nan  MISS %:       -nan   MPKI: 0
PSCL3 TOTAL     ACCESS:     108038  HIT:     108038  MISS:          0  HIT %:        100  MISS %:          0   MPKI: 0
PSCL3 LOAD      ACCESS:          0  HIT:          0  MISS:          0  HIT %:       -nan  MISS %:       -nan   MPKI: 0
PSCL3 RFO       ACCESS:          0  HIT:          0  MISS:          0  HIT %:       -nan  MISS %:       -nan   MPKI: 0
PSCL3 PREFETCH  ACCESS:          0  HIT:          0  MISS:          0  HIT %:       -nan  MISS %:       -nan   MPKI: 0
PSCL3 WRITEBACK ACCESS:          0  HIT:          0  MISS:          0  HIT %:       -nan  MISS %:       -nan   MPKI: 0
PSCL2 TOTAL     ACCESS:     107726  HIT:     107726  MISS:          0  HIT %:        100  MISS %:          0   MPKI: 0
PSCL2 LOAD      ACCESS:          0  HIT:          0  MISS:          0  HIT %:       -nan  MISS %:       -nan   MPKI: 0
PSCL2 RFO       ACCESS:          0  HIT:          0  MISS:          0  HIT %:       -nan  MISS %:       -nan   MPKI: 0
PSCL2 PREFETCH  ACCESS:          0  HIT:          0  MISS:          0  HIT %:       -nan  MISS %:       -nan   MPKI: 0
PSCL2 WRITEBACK ACCESS:          0  HIT:          0  MISS:          0  HIT %:       -nan  MISS %:       -nan   MPKI: 0
LLC TOTAL     ACCESS:    3198685  HIT:    1218176  MISS:    1980509  HIT %:    38.0836  MISS %:    61.9164   MPKI: 9.58357
LLC LOAD      ACCESS:     672762  HIT:     180865  MISS:     491897  HIT %:     26.884  MISS %:     73.116   MPKI: 2.38026
LLC RFO       ACCESS:     205816  HIT:     120223  MISS:      85593  HIT %:    58.4129  MISS %:    41.5871   MPKI: 0.41418
LLC PREFETCH  ACCESS:    2007422  HIT:     627057  MISS:    1380365  HIT %:    31.2369  MISS %:    68.7631   MPKI: 6.67951
LLC WRITEBACK ACCESS:     286977  HIT:     282410  MISS:       4567  HIT %:    98.4086  MISS %:    1.59142   MPKI: 0.0220995

RAW hits: 338151
Loads Generated: 53078184
Loads sent to L1D: 52740033
Stores Generated: 5296861
Stores sent to L1D: 5296860

CPU 1 cumulative IPC: 0.857273 instructions: 200000000 cycles: 233297841
ITLB TOTAL     ACCESS:   32290147  HIT:   32290147  MISS:          0  HIT %:        100  MISS %:          0   MPKI: 0
ITLB LOAD      ACCESS:          0  HIT:          0  MISS:          0  HIT %:       -nan  MISS %:       -nan   MPKI: 0
ITLB RFO       ACCESS:          0  HIT:          0  MISS:          0  HIT %:       -nan  MISS %:       -nan   MPKI: 0
ITLB PREFETCH  ACCESS:          0  HIT:          0  MISS:          0  HIT %:       -nan  MISS %:       -nan   MPKI: 0
ITLB WRITEBACK ACCESS:          0  HIT:          0  MISS:          0  HIT %:       -nan  MISS %:       -nan   MPKI: 0
DTLB TOTAL     ACCESS:   28720731  HIT:   28437835  MISS:     282896  HIT %:     99.015  MISS %:   0.984989   MPKI: 1.41448
DTLB LOAD      ACCESS:          0  HIT:          0  MISS:          0  HIT %:       -nan  MISS %:       -nan   MPKI: 0
DTLB RFO       ACCESS:          0  HIT:          0  MISS:          0  HIT %:       -nan  MISS %:       -nan   MPKI: 0
DTLB PREFETCH  ACCESS:          0  HIT:          0  MISS:          0  HIT %:       -nan  MISS %:       -nan   MPKI: 0
DTLB WRITEBACK ACCESS:          0  HIT:          0  MISS:          0  HIT %:       -nan  MISS %:       -nan   MPKI: 0
STLB TOTAL     ACCESS:   11565387  HIT:   11462165  MISS:     103222  HIT %:    99.1075  MISS %:   0.892508   MPKI: 0.51611
STLB LOAD      ACCESS:          0  HIT:          0  MISS:          0  HIT %:       -nan  MISS %:       -nan   MPKI: 0
STLB RFO       ACCESS:          0  HIT:          0  MISS:          0  HIT %:       -nan  MISS %:       -nan   MPKI: 0
STLB PREFETCH  ACCESS:          0  HIT:          0  MISS:          0  HIT %:       -nan  MISS %:       -nan   MPKI: 0
STLB WRITEBACK ACCESS:          0  HIT:          0  MISS:          0  HIT %:       -nan  MISS %:       -nan   MPKI: 0
L1D TOTAL     ACCESS:   70387090  HIT:   67188449  MISS:    3198641  HIT %:    95.4556  MISS %:    4.54436   MPKI: 15.9932
L1D LOAD      ACCESS:   29798229  HIT:   28277245  MISS:    1520984  HIT %:    94.8957  MISS %:    5.10428   MPKI: 7.60492
L1D RFO       ACCESS:    4039193  HIT:    3810009  MISS:     229184  HIT %:     94.326  MISS %:      5.674   MPKI: 1.14592
L1D PREFETCH  ACCESS:   36549668  HIT:   35101195  MISS:    1448473  HIT %:     96.037  MISS %:    3.96303   MPKI: 7.24237
L1D WRITEBACK ACCESS:          0  HIT:          0  MISS:          0  HIT %:       -nan  MISS %:       -nan   MPKI: 0
L1I TOTAL     ACCESS:   37782066  HIT:   37781723  MISS:        343  HIT %:    99.9991  MISS %: 0.000907838   MPKI: 0.001715
L1I LOAD      ACCESS:   37782066  HIT:   37781723  MISS:        343  HIT %:    99.9991  MISS %: 0.000907838   MPKI: 0.001715
L1I RFO       ACCESS:          0  HIT:          0  MISS:          0  HIT %:       -nan  MISS %:       -nan   MPKI: 0
L1I PREFETCH  ACCESS:          0  HIT:          0  MISS:          0  HIT %:       -nan  MISS %:       -nan   MPKI: 0
L1I WRITEBACK ACCESS:          0  HIT:          0  MISS:          0  HIT %:       -nan  MISS %:       -nan   MPKI: 0
L2C TOTAL     ACCESS:    7776814  HIT:    4883507  MISS:    2893307  HIT %:    62.7957  MISS %:    37.2043   MPKI: 14.4665
L2C LOAD      ACCESS:    1506906  HIT:     757054  MISS:     749852  HIT %:     50.239  MISS %:     49.761   MPKI: 3.74926
L2C RFO       ACCESS:     229168  HIT:      27536  MISS:     201632  HIT %:    12.0156  MISS %:    87.9844   MPKI: 1.00816
L2C PREFETCH  ACCESS:    5608163  HIT:    3744826  MISS:    1863337  HIT %:    66.7746  MISS %:    33.2254   MPKI: 9.31668
L2C WRITEBACK ACCESS:     324123  HIT:     271072  MISS:      53051  HIT %:    83.6324  MISS %:    16.3676   MPKI: 0.265255
PSCL5 TOTAL     ACCESS:     108454  HIT:     108454  MISS:          0  HIT %:        100  MISS %:          0   MPKI: 0
PSCL5 LOAD      ACCESS:          0  HIT:          0  MISS:          0  HIT %:       -nan  MISS %:       -nan   MPKI: 0
PSCL5 RFO       ACCESS:          0  HIT:          0  MISS:          0  HIT %:       -nan  MISS %:       -nan   MPKI: 0
PSCL5 PREFETCH  ACCESS:          0  HIT:          0  MISS:          0  HIT %:       -nan  MISS %:       -nan   MPKI: 0
PSCL5 WRITEBACK ACCESS:          0  HIT:          0  MISS:          0  HIT %:       -nan  MISS %:       -nan   MPKI: 0
PSCL4 TOTAL     ACCESS:     108454  HIT:     108454  MISS:          0  HIT %:        100  MISS %:          0   MPKI: 0
PSCL4 LOAD      ACCESS:          0  HIT:          0  MISS:          0  HIT %:       -nan  MISS %:       -nan   MPKI: 0
PSCL4 RFO       ACCESS:          0  HIT:          0  MISS:          0  HIT %:       -nan  MISS %:       -nan   MPKI: 0
PSCL4 PREFETCH  ACCESS:          0  HIT:          0  MISS:          0  HIT %:       -nan  MISS %:       -nan   MPKI: 0
PSCL4 WRITEBACK ACCESS:          0  HIT:          0  MISS:          0  HIT %:       -nan  MISS %:       -nan   MPKI: 0
PSCL3 TOTAL     ACCESS:     108454  HIT:     108454  MISS:          0  HIT %:        100  MISS %:          0   MPKI: 0
PSCL3 LOAD      ACCESS:          0  HIT:          0  MISS:          0  HIT %:       -nan  MISS %:       -nan   MPKI: 0
PSCL3 RFO       ACCESS:          0  HIT:          0  MISS:          0  HIT %:       -nan  MISS %:       -nan   MPKI: 0
PSCL3 PREFETCH  ACCESS:          0  HIT:          0  MISS:          0  HIT %:       -nan  MISS %:       -nan   MPKI: 0
PSCL3 WRITEBACK ACCESS:          0  HIT:          0  MISS:          0  HIT %:       -nan  MISS %:       -nan   MPKI: 0
PSCL2 TOTAL     ACCESS:     108175  HIT:     108175  MISS:          0  HIT %:        100  MISS %:          0   MPKI: 0
PSCL2 LOAD      ACCESS:          0  HIT:          0  MISS:          0  HIT %:       -nan  MISS %:       -nan   MPKI: 0
PSCL2 RFO       ACCESS:          0  HIT:          0  MISS:          0  HIT %:       -nan  MISS %:       -nan   MPKI: 0
PSCL2 PREFETCH  ACCESS:          0  HIT:          0  MISS:          0  HIT %:       -nan  MISS %:       -nan   MPKI: 0
PSCL2 WRITEBACK ACCESS:          0  HIT:          0  MISS:          0  HIT %:       -nan  MISS %:       -nan   MPKI: 0
LLC TOTAL     ACCESS:    3121294  HIT:     700797  MISS:    2420497  HIT %:    22.4521  MISS %:    77.5479   MPKI: 12.1025
LLC LOAD      ACCESS:     662973  HIT:     142090  MISS:     520883  HIT %:    21.4322  MISS %:    78.5678   MPKI: 2.60441
LLC RFO       ACCESS:     201630  HIT:     120624  MISS:      81006  HIT %:    59.8244  MISS %:    40.1756   MPKI: 0.40503
LLC PREFETCH  ACCESS:    1950214  HIT:     183226  MISS:    1766988  HIT %:    9.39517  MISS %:    90.6048   MPKI: 8.83494
LLC WRITEBACK ACCESS:     281042  HIT:     250025  MISS:      31017  HIT %:    88.9636  MISS %:    11.0364   MPKI: 0.155085

RAW hits: 332390
Loads Generated: 51415553
Loads sent to L1D: 51083158
Stores Generated: 5187904
Stores sent to L1D: 5187904

CPU 2 cumulative IPC: 0.885915 instructions: 206681988 cycles: 233297841
ITLB TOTAL     ACCESS:   33257269  HIT:   33257269  MISS:          0  HIT %:        100  MISS %:          0   MPKI: 0
ITLB LOAD      ACCESS:          0  HIT:          0  MISS:          0  HIT %:       -nan  MISS %:       -nan   MPKI: 0
ITLB RFO       ACCESS:          0  HIT:          0  MISS:          0  HIT %:       -nan  MISS %:       -nan   MPKI: 0
ITLB PREFETCH  ACCESS:          0  HIT:          0  MISS:          0  HIT %:       -nan  MISS %:       -nan   MPKI: 0
ITLB WRITEBACK ACCESS:          0  HIT:          0  MISS:          0  HIT %:       -nan  MISS %:       -nan   MPKI: 0
DTLB TOTAL     ACCESS:   29620893  HIT:   29334306  MISS:     286587  HIT %:    99.0325  MISS %:   0.967516   MPKI: 1.38661
DTLB LOAD      ACCESS:          0  HIT:          0  MISS:          0  HIT %:       -nan  MISS %:       -nan   MPKI: 0
DTLB RFO       ACCESS:          0  HIT:          0  MISS:          0  HIT %:       -nan  MISS %:       -nan   MPKI: 0
DTLB PREFETCH  ACCESS:          0  HIT:          0  MISS:          0  HIT %:       -nan  MISS %:       -nan   MPKI: 0
DTLB WRITEBACK ACCESS:          0  HIT:          0  MISS:          0  HIT %:       -nan  MISS %:       -nan   MPKI: 0
STLB TOTAL     ACCESS:   12082730  HIT:   11979186  MISS:     103544  HIT %:     99.143  MISS %:   0.856959   MPKI: 0.500982
STLB LOAD      ACCESS:          0  HIT:          0  MISS:          0  HIT %:       -nan  MISS %:       -nan   MPKI: 0
STLB RFO       ACCESS:          0  HIT:          0  MISS:          0  HIT %:       -nan  MISS %:       -nan   MPKI: 0
STLB PREFETCH  ACCESS:          0  HIT:          0  MISS:          0  HIT %:       -nan  MISS %:       -nan   MPKI: 0
STLB WRITEBACK ACCESS:          0  HIT:          0  MISS:          0  HIT %:       -nan  MISS %:       -nan   MPKI: 0
L1D TOTAL     ACCESS:   73325839  HIT:   70036350  MISS:    3289489  HIT %:    95.5139  MISS %:    4.48613   MPKI: 15.9157
L1D LOAD      ACCESS:   30795474  HIT:   29249145  MISS:    1546329  HIT %:    94.9787  MISS %:    5.02129   MPKI: 7.48168
L1D RFO       ACCESS:    4113697  HIT:    3876483  MISS:     237214  HIT %:    94.2336  MISS %:    5.76644   MPKI: 1.14772
L1D PREFETCH  ACCESS:   38416668  HIT:   36910722  MISS:    1505946  HIT %:      96.08  MISS %:    3.92003   MPKI: 7.2863
L1D WRITEBACK ACCESS:          0  HIT:          0  MISS:          0  HIT %:       -nan  MISS %:       -nan   MPKI: 0
L1I TOTAL     ACCESS:   38967542  HIT:   38967184  MISS:        358  HIT %:    99.9991  MISS %: 0.000918713   MPKI: 0.00173213
L1I LOAD      ACCESS:   38967542  HIT:   38967184  MISS:        358  HIT %:    99.9991  MISS %: 0.000918713   MPKI: 0.00173213
L1I RFO       ACCESS:          0  HIT:          0  MISS:          0  HIT %:       -nan  MISS %:       -nan   MPKI: 0
L1I PREFETCH  ACCESS:          0  HIT:          0  MISS:          0  HIT %:       -nan  MISS %:       -nan   MPKI: 0
L1I WRITEBACK ACCESS:          0  HIT:          0  MISS:          0  HIT %:       -nan  MISS %:       -nan   MPKI: 0
L2C TOTAL     ACCESS:    8580535  HIT:    5588386  MISS:    2992149  HIT %:    65.1286  MISS %:    34.8714   MPKI: 14.4771
L2C LOAD      ACCESS:    1531541  HIT:     782675  MISS:     748866  HIT %:    51.1038  MISS %:    48.8962   MPKI: 3.62328
L2C RFO       ACCESS:     237188  HIT:      27684  MISS:     209504  HIT %:    11.6718  MISS %:    88.3282   MPKI: 1.01365
L2C PREFETCH  ACCESS:    6370889  HIT:    4424267  MISS:    1946622  HIT %:     69.445  MISS %:     30.555   MPKI: 9.41844
L2C WRITEBACK ACCESS:     332590  HIT:     270856  MISS:      61734  HIT %:    81.4384  MISS %:    18.5616   MPKI: 0.298691
PSCL5 TOTAL     ACCESS:     108327  HIT:     108327  MISS:          0  HIT %:        100  MISS %:          0   MPKI: 0
PSCL5 LOAD      ACCESS:          0  HIT:          0  MISS:          0  HIT %:       -nan  MISS %:       -nan   MPKI: 0
PSCL5 RFO       ACCESS:          0  HIT:          0  MISS:          0  HIT %:       -nan  MISS %:       -nan   MPKI: 0
PSCL5 PREFETCH  ACCESS:          0  HIT:          0  MISS:          0  HIT %:       -nan  MISS %:       -nan   MPKI: 0
PSCL5 WRITEBACK ACCESS:          0  HIT:          0  MISS:          0  HIT %:       -nan  MISS %:       -nan   MPKI: 0
PSCL4 TOTAL     ACCESS:     108327  HIT:     108327  MISS:          0  HIT %:        100  MISS %:          0   MPKI: 0
PSCL4 LOAD      ACCESS:          0  HIT:          0  MISS:          0  HIT %:       -nan  MISS %:       -nan   MPKI: 0
PSCL4 RFO       ACCESS:          0  HIT:          0  MISS:          0  HIT %:       -nan  MISS %:       -nan   MPKI: 0
PSCL4 PREFETCH  ACCESS:          0  HIT:          0  MISS:          0  HIT %:       -nan  MISS %:       -nan   MPKI: 0
PSCL4 WRITEBACK ACCESS:          0  HIT:          0  MISS:          0  HIT %:       -nan  MISS %:       -nan   MPKI: 0
PSCL3 TOTAL     ACCESS:     108327  HIT:     108327  MISS:          0  HIT %:        100  MISS %:          0   MPKI: 0
PSCL3 LOAD      ACCESS:          0  HIT:          0  MISS:          0  HIT %:       -nan  MISS %:       -nan   MPKI: 0
PSCL3 RFO       ACCESS:          0  HIT:          0  MISS:          0  HIT %:       -nan  MISS %:       -nan   MPKI: 0
PSCL3 PREFETCH  ACCESS:          0  HIT:          0  MISS:          0  HIT %:       -nan  MISS %:       -nan   MPKI: 0
PSCL3 WRITEBACK ACCESS:          0  HIT:          0  MISS:          0  HIT %:       -nan  MISS %:       -nan   MPKI: 0
PSCL2 TOTAL     ACCESS:     108062  HIT:     108062  MISS:          0  HIT %:        100  MISS %:          0   MPKI: 0
PSCL2 LOAD      ACCESS:          0  HIT:          0  MISS:          0  HIT %:       -nan  MISS %:       -nan   MPKI: 0
PSCL2 RFO       ACCESS:          0  HIT:          0  MISS:          0  HIT %:       -nan  MISS %:       -nan   MPKI: 0
PSCL2 PREFETCH  ACCESS:          0  HIT:          0  MISS:          0  HIT %:       -nan  MISS %:       -nan   MPKI: 0
PSCL2 WRITEBACK ACCESS:          0  HIT:          0  MISS:          0  HIT %:       -nan  MISS %:       -nan   MPKI: 0
LLC TOTAL     ACCESS:    3218583  HIT:    1218177  MISS:    2000406  HIT %:    37.8482  MISS %:    62.1518   MPKI: 9.67867
LLC LOAD      ACCESS:     668875  HIT:     177069  MISS:     491806  HIT %:    26.4727  MISS %:    73.5273   MPKI: 2.37953
LLC RFO       ACCESS:     209499  HIT:     136145  MISS:      73354  HIT %:     64.986  MISS %:     35.014   MPKI: 0.354912
LLC PREFETCH  ACCESS:    2026609  HIT:     615003  MISS:    1411606  HIT %:    30.3464  MISS %:    69.6536   MPKI: 6.82985
LLC WRITEBACK ACCESS:     288177  HIT:     284796  MISS:       3381  HIT %:    98.8268  MISS %:    1.17324   MPKI: 0.0163585

RAW hits: 337615
Loads Generated: 53085169
Loads sent to L1D: 52747554
Stores Generated: 5298061
Stores sent to L1D: 5298061

CPU 3 cumulative IPC: 0.885702 instructions: 206632297 cycles: 233297841
ITLB TOTAL     ACCESS:   33251032  HIT:   33251032  MISS:          0  HIT %:        100  MISS %:          0   MPKI: 0
ITLB LOAD      ACCESS:          0  HIT:          0  MISS:          0  HIT %:       -nan  MISS %:       -nan   MPKI: 0
ITLB RFO       ACCESS:          0  HIT:          0  MISS:          0  HIT %:       -nan  MISS %:       -nan   MPKI: 0
ITLB PREFETCH  ACCESS:          0  HIT:          0  MISS:          0  HIT %:       -nan  MISS %:       -nan   MPKI: 0
ITLB WRITEBACK ACCESS:          0  HIT:          0  MISS:          0  HIT %:       -nan  MISS %:       -nan   MPKI: 0
DTLB TOTAL     ACCESS:   29613364  HIT:   29326965  MISS:     286399  HIT %:    99.0329  MISS %:   0.967128   MPKI: 1.38603
DTLB LOAD      ACCESS:          0  HIT:          0  MISS:          0  HIT %:       -nan  MISS %:       -nan   MPKI: 0
DTLB RFO       ACCESS:          0  HIT:          0  MISS:          0  HIT %:       -nan  MISS %:       -nan   MPKI: 0
DTLB PREFETCH  ACCESS:          0  HIT:          0  MISS:          0  HIT %:       -nan  MISS %:       -nan   MPKI: 0
DTLB WRITEBACK ACCESS:          0  HIT:          0  MISS:          0  HIT %:       -nan  MISS %:       -nan   MPKI: 0
STLB TOTAL     ACCESS:   12040939  HIT:   11937483  MISS:     103456  HIT %:    99.1408  MISS %:   0.859202   MPKI: 0.500677
STLB LOAD      ACCESS:          0  HIT:          0  MISS:          0  HIT %:       -nan  MISS %:       -nan   MPKI: 0
STLB RFO       ACCESS:          0  HIT:          0  MISS:          0  HIT %:       -nan  MISS %:       -nan   MPKI: 0
STLB PREFETCH  ACCESS:          0  HIT:          0  MISS:          0  HIT %:       -nan  MISS %:       -nan   MPKI: 0
STLB WRITEBACK ACCESS:          0  HIT:          0  MISS:          0  HIT %:       -nan  MISS %:       -nan   MPKI: 0
L1D TOTAL     ACCESS:   73406632  HIT:   70118200  MISS:    3288432  HIT %:    95.5203  MISS %:    4.47975   MPKI: 15.9144
L1D LOAD      ACCESS:   30787982  HIT:   29241229  MISS:    1546753  HIT %:    94.9761  MISS %:    5.02389   MPKI: 7.48553
L1D RFO       ACCESS:    4111590  HIT:    3874390  MISS:     237200  HIT %:    94.2309  MISS %:    5.76906   MPKI: 1.14793
L1D PREFETCH  ACCESS:   38507060  HIT:   37002581  MISS:    1504479  HIT %:     96.093  MISS %:    3.90702   MPKI: 7.28095
L1D WRITEBACK ACCESS:          0  HIT:          0  MISS:          0  HIT %:       -nan  MISS %:       -nan   MPKI: 0
L1I TOTAL     ACCESS:   38958814  HIT:   38958456  MISS:        358  HIT %:    99.9991  MISS %: 0.000918919   MPKI: 0.00173255
L1I LOAD      ACCESS:   38958814  HIT:   38958456  MISS:        358  HIT %:    99.9991  MISS %: 0.000918919   MPKI: 0.00173255
L1I RFO       ACCESS:          0  HIT:          0  MISS:          0  HIT %:       -nan  MISS %:       -nan   MPKI: 0
L1I PREFETCH  ACCESS:          0  HIT:          0  MISS:          0  HIT %:       -nan  MISS %:       -nan   MPKI: 0
L1I WRITEBACK ACCESS:          0  HIT:          0  MISS:          0  HIT %:       -nan  MISS %:       -nan   MPKI: 0
L2C TOTAL     ACCESS:    8600454  HIT:    5606276  MISS:    2994178  HIT %:    65.1858  MISS %:    34.8142   MPKI: 14.4904
L2C LOAD      ACCESS:    1532453  HIT:     777797  MISS:     754656  HIT %:     50.755  MISS %:     49.245   MPKI: 3.65217
L2C RFO       ACCESS:     237184  HIT:      30758  MISS:     206426  HIT %:     12.968  MISS %:     87.032   MPKI: 0.999002
L2C PREFETCH  ACCESS:    6389877  HIT:    4441403  MISS:    1948474  HIT %:    69.5069  MISS %:    30.4931   MPKI: 9.42967
L2C WRITEBACK ACCESS:     332567  HIT:     273248  MISS:      59319  HIT %:    82.1633  MISS %:    17.8367   MPKI: 0.287075
PSCL5 TOTAL     ACCESS:     108373  HIT:     108373  MISS:          0  HIT %:        100  MISS %:          0   MPKI: 0
PSCL5 LOAD      ACCESS:          0  HIT:          0  MISS:          0  HIT %:       -nan  MISS %:       -nan   MPKI: 0
PSCL5 RFO       ACCESS:          0  HIT:          0  MISS:          0  HIT %:       -nan  MISS %:       -nan   MPKI: 0
PSCL5 PREFETCH  ACCESS:          0  HIT:          0  MISS:          0  HIT %:       -nan  MISS %:       -nan   MPKI: 0
PSCL5 WRITEBACK ACCESS:          0  HIT:          0  MISS:          0  HIT %:       -nan  MISS %:       -nan   MPKI: 0
PSCL4 TOTAL     ACCESS:     108373  HIT:     108373  MISS:          0  HIT %:        100  MISS %:          0   MPKI: 0
PSCL4 LOAD      ACCESS:          0  HIT:          0  MISS:          0  HIT %:       -nan  MISS %:       -nan   MPKI: 0
PSCL4 RFO       ACCESS:          0  HIT:          0  MISS:          0  HIT %:       -nan  MISS %:       -nan   MPKI: 0
PSCL4 PREFETCH  ACCESS:          0  HIT:          0  MISS:          0  HIT %:       -nan  MISS %:       -nan   MPKI: 0
PSCL4 WRITEBACK ACCESS:          0  HIT:          0  MISS:          0  HIT %:       -nan  MISS %:       -nan   MPKI: 0
PSCL3 TOTAL     ACCESS:     108373  HIT:     108373  MISS:          0  HIT %:        100  MISS %:          0   MPKI: 0
PSCL3 LOAD      ACCESS:          0  HIT:          0  MISS:          0  HIT %:       -nan  MISS %:       -nan   MPKI: 0
PSCL3 RFO       ACCESS:          0  HIT:          0  MISS:          0  HIT %:       -nan  MISS %:       -nan   MPKI: 0
PSCL3 PREFETCH  ACCESS:          0  HIT:          0  MISS:          0  HIT %:       -nan  MISS %:       -nan   MPKI: 0
PSCL3 WRITEBACK ACCESS:          0  HIT:          0  MISS:          0  HIT %:       -nan  MISS %:       -nan   MPKI: 0
PSCL2 TOTAL     ACCESS:     108036  HIT:     108036  MISS:          0  HIT %:        100  MISS %:          0   MPKI: 0
PSCL2 LOAD      ACCESS:          0  HIT:          0  MISS:          0  HIT %:       -nan  MISS %:       -nan   MPKI: 0
PSCL2 RFO       ACCESS:          0  HIT:          0  MISS:          0  HIT %:       -nan  MISS %:       -nan   MPKI: 0
PSCL2 PREFETCH  ACCESS:          0  HIT:          0  MISS:          0  HIT %:       -nan  MISS %:       -nan   MPKI: 0
PSCL2 WRITEBACK ACCESS:          0  HIT:          0  MISS:          0  HIT %:       -nan  MISS %:       -nan   MPKI: 0
LLC TOTAL     ACCESS:    3223455  HIT:    1245986  MISS:    1977469  HIT %:    38.6537  MISS %:    61.3463   MPKI: 9.56999
LLC LOAD      ACCESS:     674659  HIT:     182794  MISS:     491865  HIT %:    27.0943  MISS %:    72.9057   MPKI: 2.38039
LLC RFO       ACCESS:     206424  HIT:     129601  MISS:      76823  HIT %:    62.7839  MISS %:    37.2161   MPKI: 0.371786
LLC PREFETCH  ACCESS:    2028470  HIT:     642503  MISS:    1385967  HIT %:    31.6743  MISS %:    68.3257   MPKI: 6.70741
LLC WRITEBACK ACCESS:     288599  HIT:     284959  MISS:       3640  HIT %:    98.7387  MISS %:    1.26127   MPKI: 0.0176158

RAW hits: 337588
Loads Generated: 53071528
Loads sent to L1D: 52733940
Stores Generated: 5295923
Stores sent to L1D: 5295922

Region of Interest Statistics

CPU 0 cumulative IPC: 0.875672 instructions: 200000000 cycles: 228396017
ITLB TOTAL     ACCESS:   32258532  HIT:   32258532  MISS:          0  HIT %:        100  MISS %:          0   MPKI: 0
ITLB LOAD TRANSLATION ACCESS:   32258532  HIT:   32258532  MISS:          0  HIT %:        100  MISS %:          0   MPKI: 0
ITLB PREFETCH  REQUESTED:          0  ISSUED:          0  USEFUL:          0  USELESS:          0
ITLB USEFUL LOAD PREFETCHES:          0 PREFETCH ISSUED TO LOWER LEVEL:          0  ACCURACY: -nan
ITLB TIMELY PREFETCHES:          0 LATE PREFETCHES: 0 DROPPED PREFETCHES: 0
ITLB PREFETCHES SAME FILL-ORIGIN LEVEL: 0 DIFFERENT FILL-ORIGIN LEVEL: 0
ITLB AVERAGE MISS LATENCY: -nan cycles
ITLB RQ	ACCESS:   38967993	FORWARD:          0	MERGED:    5706854	TO_CACHE:   33261139

DTLB TOTAL     ACCESS:   28740664  HIT:   28457739  MISS:     282925  HIT %:    99.0156  MISS %:   0.984407   MPKI: 1.41463
DTLB LOAD TRANSLATION ACCESS:   28740664  HIT:   28457739  MISS:     282925  HIT %:    99.0156  MISS %:   0.984407   MPKI: 1.41463
DTLB PREFETCH  REQUESTED:          0  ISSUED:          0  USEFUL:          0  USELESS:          0
DTLB USEFUL LOAD PREFETCHES:          0 PREFETCH ISSUED TO LOWER LEVEL:          0  ACCURACY: -nan
DTLB TIMELY PREFETCHES:          0 LATE PREFETCHES: 0 DROPPED PREFETCHES: 0
DTLB PREFETCHES SAME FILL-ORIGIN LEVEL: 0 DIFFERENT FILL-ORIGIN LEVEL: 0
DTLB AVERAGE MISS LATENCY: 36.9906 cycles
DTLB RQ	ACCESS:   36921209	FORWARD:          0	MERGED:    7209739	TO_CACHE:   29711470

STLB TOTAL     ACCESS:   11605656  HIT:   11502459  MISS:     103197  HIT %:    99.1108  MISS %:   0.889196   MPKI: 0.515985
STLB LOAD TRANSLATION ACCESS:     282925  HIT:     207357  MISS:      75568  HIT %:    73.2904  MISS %:    26.7096   MPKI: 0.37784
STLB TRANSLATION FROM L1D PREFETCHER ACCESS:   11322731  HIT:   11295102  MISS:      27629  HIT %:     99.756  MISS %:   0.244014   MPKI: 0.138145
STLB PREFETCH  REQUESTED:          0  ISSUED:          0  USEFUL:      27372  USELESS:        276
STLB USEFUL LOAD PREFETCHES:      27372 PREFETCH ISSUED TO LOWER LEVEL:          0  ACCURACY: inf
STLB TIMELY PREFETCHES:      27372 LATE PREFETCHES: 265 DROPPED PREFETCHES: 4581
STLB PREFETCHES SAME FILL-ORIGIN LEVEL: 0 DIFFERENT FILL-ORIGIN LEVEL: 0
STLB AVERAGE MISS LATENCY: 94.3915 cycles
STLB RQ	ACCESS:   48186754	FORWARD:          0	MERGED:   36103327	TO_CACHE:   12083427

STLB Hit, L1D data hit: 0
STLB Hit, L2C data hit: 0
STLB Hit, LLC data hit: 0
STLB Hit, LLC data miss: 0
STLB STLB hints to L2: 0
L1D TOTAL     ACCESS:   71220234  HIT:   68021273  MISS:    3198961  HIT %:    95.5084  MISS %:    4.49165   MPKI: 15.9948
L1D LOAD      ACCESS:   29821797  HIT:   28303567  MISS:    1518230  HIT %:     94.909  MISS %:    5.09101   MPKI: 7.59115
L1D RFO       ACCESS:    4052190  HIT:    3823018  MISS:     229172  HIT %:    94.3445  MISS %:    5.65551   MPKI: 1.14586
L1D PREFETCH  ACCESS:   37346247  HIT:   35894688  MISS:    1451559  HIT %:    96.1132  MISS %:    3.88676   MPKI: 7.25779
L1D PREFETCH  REQUESTED:  131462428  ISSUED:  115591048  USEFUL:    1480217  USELESS:      30502
L1D USEFUL LOAD PREFETCHES:    1480217 PREFETCH ISSUED TO LOWER LEVEL:    8478018  ACCURACY: 17.4595
L1D TIMELY PREFETCHES:    1480217 LATE PREFETCHES: 13855 DROPPED PREFETCHES: 9959
L1D PREFETCHES SAME FILL-ORIGIN LEVEL: 1531207 DIFFERENT FILL-ORIGIN LEVEL: 6946811
L1D AVERAGE MISS LATENCY: 168.84 cycles
L1D RQ	ACCESS:   52740033	FORWARD:          0	MERGED:   21020412	TO_CACHE:   31646493
L1D WQ	ACCESS:    5296860	FORWARD:      73128	MERGED:      22144	TO_CACHE:    5274716
L1D PQ	ACCESS:   67690807	FORWARD:          0	MERGED:   19790566	TO_CACHE:   47900241

L1D UNIQUE REGIONS ACCESSED: 0
L1D REGIONS CONFLICTS: 0
L1D Cross Page Prefetch Requests: 14891172
L1D Same Page Prefetch Requests: 72752123
L1D ROI Sum of L1D PQ occupancy: 637058923
L1D PREFETCHES PUSHED FROM L2C: 0
L1I TOTAL     ACCESS:   37758093  HIT:   37757750  MISS:        343  HIT %:    99.9991  MISS %: 0.000908415   MPKI: 0.001715
L1I LOAD      ACCESS:   37758093  HIT:   37757750  MISS:        343  HIT %:    99.9991  MISS %: 0.000908415   MPKI: 0.001715
L1I PREFETCH  REQUESTED:          0  ISSUED:          0  USEFUL:          0  USELESS:          0
L1I USEFUL LOAD PREFETCHES:          0 PREFETCH ISSUED TO LOWER LEVEL:          0  ACCURACY: -nan
L1I TIMELY PREFETCHES:          0 LATE PREFETCHES: 0 DROPPED PREFETCHES: 0
L1I PREFETCHES SAME FILL-ORIGIN LEVEL: 0 DIFFERENT FILL-ORIGIN LEVEL: 0
L1I AVERAGE MISS LATENCY: 295.335 cycles
L1I RQ	ACCESS:   52559480	FORWARD:          0	MERGED:   13591487	TO_CACHE:   38967993

BTB TOTAL     ACCESS:   17205394  HIT:   17137991  MISS:      67403  HIT %:    99.6082  MISS %:   0.391755   MPKI: 0.337015
BTB BRANCH_DIRECT_JUMP	ACCESS:     485487  HIT:     485388  MISS:         99
BTB BRANCH_INDIRECT	ACCESS:          0  HIT:          0  MISS:          0
BTB BRANCH_CONDITIONAL	ACCESS:   16108385  HIT:   16108037  MISS:        348
BTB BRANCH_DIRECT_CALL	ACCESS:     305699  HIT:     305551  MISS:        148
BTB BRANCH_INDIRECT_CALL	ACCESS:         62  HIT:         61  MISS:          1
BTB BRANCH_RETURN	ACCESS:     305761  HIT:     238954  MISS:      66807
BTB BRANCH_OTHER ACCESS:          0  HIT:          0  MISS:          0

L2C TOTAL     ACCESS:    8208512  HIT:    5325632  MISS:    2882880  HIT %:    64.8794  MISS %:    35.1206   MPKI: 14.4144
L2C LOAD      ACCESS:    1505033  HIT:     761789  MISS:     743244  HIT %:    50.6161  MISS %:    49.3839   MPKI: 3.71622
L2C DATA LOAD MPKI: 3.7145
L2C INSTRUCTION LOAD MPKI: 0.001715
L2C RFO       ACCESS:     229147  HIT:      30549  MISS:     198598  HIT %:    13.3316  MISS %:    86.6684   MPKI: 0.99299
L2C PREFETCH  ACCESS:    6042461  HIT:    4181161  MISS:    1861300  HIT %:    69.1963  MISS %:    30.8037   MPKI: 9.3065
L2C DATA PREFETCH MPKI: 9.3065
L2C INSTRUCTION PREFETCH MPKI: 0
L2C WRITEBACK ACCESS:     324110  HIT:     269958  MISS:      54152  HIT %:    83.2921  MISS %:    16.7079   MPKI: 0.27076
L2C LOAD TRANSLATION ACCESS:      75314  HIT:      53939  MISS:      21375  HIT %:    71.6188  MISS %:    28.3812   MPKI: 0.106875
L2C TRANSLATION FROM L1D PREFETCHER ACCESS:      32447  HIT:      28236  MISS:       4211  HIT %:    87.0219  MISS %:    12.9781   MPKI: 0.021055
L2C PREFETCH  REQUESTED:          0  ISSUED:          0  USEFUL:     358702  USELESS:    1576177
L2C USEFUL LOAD PREFETCHES:     358702 PREFETCH ISSUED TO LOWER LEVEL:    2007423  ACCURACY: 17.8688
L2C TIMELY PREFETCHES:     358702 LATE PREFETCHES: 79194 DROPPED PREFETCHES: 0
L2C PREFETCHES SAME FILL-ORIGIN LEVEL: 1050822 DIFFERENT FILL-ORIGIN LEVEL: 0
L2C AVERAGE MISS LATENCY: 285.432 cycles
L2C RQ	ACCESS:    1873213	FORWARD:          0	MERGED:          0	TO_CACHE:    1873195
L2C WQ	ACCESS:     332571	FORWARD:         18	MERGED:          0	TO_CACHE:     332571
L2C PQ	ACCESS:    8345876	FORWARD:          0	MERGED:      98085	TO_CACHE:    8247791

L2C Instructions Evicting Data 348
L2C Translations Evicting Data 25395
L2C Data Evicting Data 2860286
L2C Instructions Evicting Instructions 0
L2C Translations Evicting Instructions 2
L2C Data Evicting Instructions 348
L2C Instructions Evicting Translations 10
L2C Translations Evicting Translations 311
L2C Data Evicting Translations 25012
L2C Dense regions hint from L2: 0
PSCL5 TOTAL     ACCESS:     107761  HIT:     107761  MISS:          0  HIT %:        100  MISS %:          0   MPKI: 0
PSCL5 LOAD TRANSLATION ACCESS:      75314  HIT:      75314  MISS:          0  HIT %:        100  MISS %:          0   MPKI: 0
PSCL5 TRANSLATION FROM L1D PREFETCHER ACCESS:      32447  HIT:      32447  MISS:          0  HIT %:        100  MISS %:          0   MPKI: 0
PSCL5 PREFETCH  REQUESTED:          0  ISSUED:          0  USEFUL:          0  USELESS:          0
PSCL5 USEFUL LOAD PREFETCHES:          0 PREFETCH ISSUED TO LOWER LEVEL:          0  ACCURACY: -nan
PSCL5 TIMELY PREFETCHES:          0 LATE PREFETCHES: 0 DROPPED PREFETCHES: 0
PSCL5 PREFETCHES SAME FILL-ORIGIN LEVEL: 0 DIFFERENT FILL-ORIGIN LEVEL: 0

PSCL4 TOTAL     ACCESS:     107761  HIT:     107761  MISS:          0  HIT %:        100  MISS %:          0   MPKI: 0
PSCL4 LOAD TRANSLATION ACCESS:      75314  HIT:      75314  MISS:          0  HIT %:        100  MISS %:          0   MPKI: 0
PSCL4 TRANSLATION FROM L1D PREFETCHER ACCESS:      32447  HIT:      32447  MISS:          0  HIT %:        100  MISS %:          0   MPKI: 0
PSCL4 PREFETCH  REQUESTED:          0  ISSUED:          0  USEFUL:          0  USELESS:          0
PSCL4 USEFUL LOAD PREFETCHES:          0 PREFETCH ISSUED TO LOWER LEVEL:          0  ACCURACY: -nan
PSCL4 TIMELY PREFETCHES:          0 LATE PREFETCHES: 0 DROPPED PREFETCHES: 0
PSCL4 PREFETCHES SAME FILL-ORIGIN LEVEL: 0 DIFFERENT FILL-ORIGIN LEVEL: 0

PSCL3 TOTAL     ACCESS:     107761  HIT:     107761  MISS:          0  HIT %:        100  MISS %:          0   MPKI: 0
PSCL3 LOAD TRANSLATION ACCESS:      75314  HIT:      75314  MISS:          0  HIT %:        100  MISS %:          0   MPKI: 0
PSCL3 TRANSLATION FROM L1D PREFETCHER ACCESS:      32447  HIT:      32447  MISS:          0  HIT %:        100  MISS %:          0   MPKI: 0
PSCL3 PREFETCH  REQUESTED:          0  ISSUED:          0  USEFUL:          0  USELESS:          0
PSCL3 USEFUL LOAD PREFETCHES:          0 PREFETCH ISSUED TO LOWER LEVEL:          0  ACCURACY: -nan
PSCL3 TIMELY PREFETCHES:          0 LATE PREFETCHES: 0 DROPPED PREFETCHES: 0
PSCL3 PREFETCHES SAME FILL-ORIGIN LEVEL: 0 DIFFERENT FILL-ORIGIN LEVEL: 0

PSCL2 TOTAL     ACCESS:     107449  HIT:     107449  MISS:          0  HIT %:        100  MISS %:          0   MPKI: 0
PSCL2 LOAD TRANSLATION ACCESS:      75314  HIT:      75314  MISS:          0  HIT %:        100  MISS %:          0   MPKI: 0
PSCL2 TRANSLATION FROM L1D PREFETCHER ACCESS:      32135  HIT:      32135  MISS:          0  HIT %:        100  MISS %:          0   MPKI: 0
PSCL2 PREFETCH  REQUESTED:          0  ISSUED:          0  USEFUL:          0  USELESS:          0
PSCL2 USEFUL LOAD PREFETCHES:          0 PREFETCH ISSUED TO LOWER LEVEL:          0  ACCURACY: -nan
PSCL2 TIMELY PREFETCHES:          0 LATE PREFETCHES: 0 DROPPED PREFETCHES: 0
PSCL2 PREFETCHES SAME FILL-ORIGIN LEVEL: 0 DIFFERENT FILL-ORIGIN LEVEL: 0

LLC TOTAL     ACCESS:    3107661  HIT:    1164202  MISS:    1943459  HIT %:    37.4623  MISS %:    62.5377   MPKI: 9.7173
LLC LOAD      ACCESS:     664876  HIT:     177710  MISS:     487166  HIT %:    26.7283  MISS %:    73.2717   MPKI: 2.43583
LLC RFO       ACCESS:     198595  HIT:     114782  MISS:      83813  HIT %:     57.797  MISS %:     42.203   MPKI: 0.419065
LLC PREFETCH  ACCESS:    1939667  HIT:     589662  MISS:    1350005  HIT %:    30.4002  MISS %:    69.5998   MPKI: 6.75002
LLC WRITEBACK ACCESS:     278937  HIT:     274439  MISS:       4498  HIT %:    98.3874  MISS %:    1.61255   MPKI: 0.02249
LLC LOAD TRANSLATION ACCESS:      21375  HIT:       6160  MISS:      15215  HIT %:    28.8187  MISS %:    71.1813   MPKI: 0.076075
LLC TRANSLATION FROM L1D PREFETCHER ACCESS:       4211  HIT:       1449  MISS:       2762  HIT %:    34.4099  MISS %:    65.5901   MPKI: 0.01381
LLC PREFETCH  REQUESTED:          0  ISSUED:          0  USEFUL:      18852  USELESS:    5940732
LLC USEFUL LOAD PREFETCHES:      18852 PREFETCH ISSUED TO LOWER LEVEL:   26007076  ACCURACY: 0.072488
LLC TIMELY PREFETCHES:      18852 LATE PREFETCHES: 0 DROPPED PREFETCHES: 0
LLC PREFETCHES SAME FILL-ORIGIN LEVEL: 0 DIFFERENT FILL-ORIGIN LEVEL: 0
LLC AVERAGE MISS LATENCY: 1552.7 cycles
LLC RQ	ACCESS:    3604529	FORWARD:          0	MERGED:          0	TO_CACHE:    3604511
LLC WQ	ACCESS:    1144795	FORWARD:         20	MERGED:          0	TO_CACHE:    1144795
LLC PQ	ACCESS:    8012732	FORWARD:          0	MERGED:          0	TO_CACHE:    8012730

LLC Dense regions hint to LLC: 0

RAW hits: 332021
Loads Generated: 51415547
Loads sent to L1D: 51083524
Stores Generated: 5187902
Stores sent to L1D: 5187904
Major fault: 0 Minor fault: 3475
Allocated PAGES: 13897

CPU 1 cumulative IPC: 0.857273 instructions: 200000000 cycles: 233297841
ITLB TOTAL     ACCESS:   32290147  HIT:   32290147  MISS:          0  HIT %:        100  MISS %:          0   MPKI: 0
ITLB LOAD TRANSLATION ACCESS:   32290147  HIT:   32290147  MISS:          0  HIT %:        100  MISS %:          0   MPKI: 0
ITLB PREFETCH  REQUESTED:          0  ISSUED:          0  USEFUL:          0  USELESS:          0
ITLB USEFUL LOAD PREFETCHES:          0 PREFETCH ISSUED TO LOWER LEVEL:          0  ACCURACY: -nan
ITLB TIMELY PREFETCHES:          0 LATE PREFETCHES: 0 DROPPED PREFETCHES: 0
ITLB PREFETCHES SAME FILL-ORIGIN LEVEL: 0 DIFFERENT FILL-ORIGIN LEVEL: 0
ITLB AVERAGE MISS LATENCY: -nan cycles
ITLB RQ	ACCESS:   37782209	FORWARD:          0	MERGED:    5492063	TO_CACHE:   32290146

DTLB TOTAL     ACCESS:   28720731  HIT:   28437835  MISS:     282896  HIT %:     99.015  MISS %:   0.984989   MPKI: 1.41448
DTLB LOAD TRANSLATION ACCESS:   28720731  HIT:   28437835  MISS:     282896  HIT %:     99.015  MISS %:   0.984989   MPKI: 1.41448
DTLB PREFETCH  REQUESTED:          0  ISSUED:          0  USEFUL:          0  USELESS:          0
DTLB USEFUL LOAD PREFETCHES:          0 PREFETCH ISSUED TO LOWER LEVEL:          0  ACCURACY: -nan
DTLB TIMELY PREFETCHES:          0 LATE PREFETCHES: 0 DROPPED PREFETCHES: 0
DTLB PREFETCHES SAME FILL-ORIGIN LEVEL: 0 DIFFERENT FILL-ORIGIN LEVEL: 0
DTLB AVERAGE MISS LATENCY: 39.3691 cycles
DTLB RQ	ACCESS:   35754112	FORWARD:          0	MERGED:    6974571	TO_CACHE:   28779541

STLB TOTAL     ACCESS:   11565387  HIT:   11462165  MISS:     103222  HIT %:    99.1075  MISS %:   0.892508   MPKI: 0.51611
STLB LOAD TRANSLATION ACCESS:     282896  HIT:     207285  MISS:      75611  HIT %:    73.2725  MISS %:    26.7275   MPKI: 0.378055
STLB TRANSLATION FROM L1D PREFETCHER ACCESS:   11282491  HIT:   11254880  MISS:      27611  HIT %:    99.7553  MISS %:   0.244724   MPKI: 0.138055
STLB PREFETCH  REQUESTED:          0  ISSUED:          0  USEFUL:      27309  USELESS:        293
STLB USEFUL LOAD PREFETCHES:      27309 PREFETCH ISSUED TO LOWER LEVEL:          0  ACCURACY: inf
STLB TIMELY PREFETCHES:      27309 LATE PREFETCHES: 317 DROPPED PREFETCHES: 5221
STLB PREFETCHES SAME FILL-ORIGIN LEVEL: 0 DIFFERENT FILL-ORIGIN LEVEL: 0
STLB AVERAGE MISS LATENCY: 101.569 cycles
STLB RQ	ACCESS:   45937145	FORWARD:          0	MERGED:   34364578	TO_CACHE:   11572567

STLB Hit, L1D data hit: 0
STLB Hit, L2C data hit: 0
STLB Hit, LLC data hit: 0
STLB Hit, LLC data miss: 0
STLB STLB hints to L2: 0
L1D TOTAL     ACCESS:   70387090  HIT:   67188449  MISS:    3198641  HIT %:    95.4556  MISS %:    4.54436   MPKI: 15.9932
L1D LOAD      ACCESS:   29798229  HIT:   28277245  MISS:    1520984  HIT %:    94.8957  MISS %:    5.10428   MPKI: 7.60492
L1D RFO       ACCESS:    4039193  HIT:    3810009  MISS:     229184  HIT %:     94.326  MISS %:      5.674   MPKI: 1.14592
L1D PREFETCH  ACCESS:   36549668  HIT:   35101195  MISS:    1448473  HIT %:     96.037  MISS %:    3.96303   MPKI: 7.24237
L1D PREFETCH  REQUESTED:  124797752  ISSUED:  110282446  USEFUL:    1419134  USELESS:      29345
L1D USEFUL LOAD PREFETCHES:    1419134 PREFETCH ISSUED TO LOWER LEVEL:    8066858  ACCURACY: 17.5922
L1D TIMELY PREFETCHES:    1419134 LATE PREFETCHES: 14417 DROPPED PREFETCHES: 10597
L1D PREFETCHES SAME FILL-ORIGIN LEVEL: 1469650 DIFFERENT FILL-ORIGIN LEVEL: 6597208
L1D AVERAGE MISS LATENCY: 184.154 cycles
L1D RQ	ACCESS:   51083158	FORWARD:          0	MERGED:   20422990	TO_CACHE:   30588086
L1D WQ	ACCESS:    5187904	FORWARD:      72082	MERGED:      21878	TO_CACHE:    5166026
L1D PQ	ACCESS:   64628197	FORWARD:          0	MERGED:   18973948	TO_CACHE:   45654249

L1D UNIQUE REGIONS ACCESSED: 0
L1D REGIONS CONFLICTS: 0
L1D Cross Page Prefetch Requests: 14319062
L1D Same Page Prefetch Requests: 70303546
L1D ROI Sum of L1D PQ occupancy: 607228833
L1D PREFETCHES PUSHED FROM L2C: 0
L1I TOTAL     ACCESS:   37782066  HIT:   37781723  MISS:        343  HIT %:    99.9991  MISS %: 0.000907838   MPKI: 0.001715
L1I LOAD      ACCESS:   37782066  HIT:   37781723  MISS:        343  HIT %:    99.9991  MISS %: 0.000907838   MPKI: 0.001715
L1I PREFETCH  REQUESTED:          0  ISSUED:          0  USEFUL:          0  USELESS:          0
L1I USEFUL LOAD PREFETCHES:          0 PREFETCH ISSUED TO LOWER LEVEL:          0  ACCURACY: -nan
L1I TIMELY PREFETCHES:          0 LATE PREFETCHES: 0 DROPPED PREFETCHES: 0
L1I PREFETCHES SAME FILL-ORIGIN LEVEL: 0 DIFFERENT FILL-ORIGIN LEVEL: 0
L1I AVERAGE MISS LATENCY: 284.283 cycles
L1I RQ	ACCESS:   50944417	FORWARD:          0	MERGED:   13162208	TO_CACHE:   37782209

BTB TOTAL     ACCESS:   17205395  HIT:   17137994  MISS:      67401  HIT %:    99.6083  MISS %:   0.391743   MPKI: 0.337005
BTB BRANCH_DIRECT_JUMP	ACCESS:     485487  HIT:     485388  MISS:         99
BTB BRANCH_INDIRECT	ACCESS:          0  HIT:          0  MISS:          0
BTB BRANCH_CONDITIONAL	ACCESS:   16108386  HIT:   16108040  MISS:        346
BTB BRANCH_DIRECT_CALL	ACCESS:     305699  HIT:     305551  MISS:        148
BTB BRANCH_INDIRECT_CALL	ACCESS:         62  HIT:         61  MISS:          1
BTB BRANCH_RETURN	ACCESS:     305761  HIT:     238954  MISS:      66807
BTB BRANCH_OTHER ACCESS:          0  HIT:          0  MISS:          0

L2C TOTAL     ACCESS:    7776814  HIT:    4883507  MISS:    2893307  HIT %:    62.7957  MISS %:    37.2043   MPKI: 14.4665
L2C LOAD      ACCESS:    1506906  HIT:     757054  MISS:     749852  HIT %:     50.239  MISS %:     49.761   MPKI: 3.74926
L2C DATA LOAD MPKI: 3.74755
L2C INSTRUCTION LOAD MPKI: 0.001715
L2C RFO       ACCESS:     229168  HIT:      27536  MISS:     201632  HIT %:    12.0156  MISS %:    87.9844   MPKI: 1.00816
L2C PREFETCH  ACCESS:    5608163  HIT:    3744826  MISS:    1863337  HIT %:    66.7746  MISS %:    33.2254   MPKI: 9.31668
L2C DATA PREFETCH MPKI: 9.31668
L2C INSTRUCTION PREFETCH MPKI: 0
L2C WRITEBACK ACCESS:     324123  HIT:     271072  MISS:      53051  HIT %:    83.6324  MISS %:    16.3676   MPKI: 0.265255
L2C LOAD TRANSLATION ACCESS:      75305  HIT:      53973  MISS:      21332  HIT %:    71.6725  MISS %:    28.3275   MPKI: 0.10666
L2C TRANSLATION FROM L1D PREFETCHER ACCESS:      33149  HIT:      29046  MISS:       4103  HIT %:    87.6226  MISS %:    12.3774   MPKI: 0.020515
L2C PREFETCH  REQUESTED:          0  ISSUED:          0  USEFUL:     344883  USELESS:    1522984
L2C USEFUL LOAD PREFETCHES:     344883 PREFETCH ISSUED TO LOWER LEVEL:    1950226  ACCURACY: 17.6843
L2C TIMELY PREFETCHES:     344883 LATE PREFETCHES: 86877 DROPPED PREFETCHES: 0
L2C PREFETCHES SAME FILL-ORIGIN LEVEL: 1036322 DIFFERENT FILL-ORIGIN LEVEL: 0
L2C AVERAGE MISS LATENCY: 311.122 cycles
L2C RQ	ACCESS:    1844538	FORWARD:          0	MERGED:          0	TO_CACHE:    1844528
L2C WQ	ACCESS:     324123	FORWARD:         10	MERGED:          0	TO_CACHE:     324123
L2C PQ	ACCESS:    7945530	FORWARD:          0	MERGED:      93411	TO_CACHE:    7852119

L2C Instructions Evicting Data 335
L2C Translations Evicting Data 24753
L2C Data Evicting Data 2789653
L2C Instructions Evicting Instructions 6
L2C Translations Evicting Instructions 0
L2C Data Evicting Instructions 328
L2C Instructions Evicting Translations 2
L2C Translations Evicting Translations 682
L2C Data Evicting Translations 24497
L2C Dense regions hint from L2: 0
PSCL5 TOTAL     ACCESS:     108454  HIT:     108454  MISS:          0  HIT %:        100  MISS %:          0   MPKI: 0
PSCL5 LOAD TRANSLATION ACCESS:      75305  HIT:      75305  MISS:          0  HIT %:        100  MISS %:          0   MPKI: 0
PSCL5 TRANSLATION FROM L1D PREFETCHER ACCESS:      33149  HIT:      33149  MISS:          0  HIT %:        100  MISS %:          0   MPKI: 0
PSCL5 PREFETCH  REQUESTED:          0  ISSUED:          0  USEFUL:          0  USELESS:          0
PSCL5 USEFUL LOAD PREFETCHES:          0 PREFETCH ISSUED TO LOWER LEVEL:          0  ACCURACY: -nan
PSCL5 TIMELY PREFETCHES:          0 LATE PREFETCHES: 0 DROPPED PREFETCHES: 0
PSCL5 PREFETCHES SAME FILL-ORIGIN LEVEL: 0 DIFFERENT FILL-ORIGIN LEVEL: 0

PSCL4 TOTAL     ACCESS:     108454  HIT:     108454  MISS:          0  HIT %:        100  MISS %:          0   MPKI: 0
PSCL4 LOAD TRANSLATION ACCESS:      75305  HIT:      75305  MISS:          0  HIT %:        100  MISS %:          0   MPKI: 0
PSCL4 TRANSLATION FROM L1D PREFETCHER ACCESS:      33149  HIT:      33149  MISS:          0  HIT %:        100  MISS %:          0   MPKI: 0
PSCL4 PREFETCH  REQUESTED:          0  ISSUED:          0  USEFUL:          0  USELESS:          0
PSCL4 USEFUL LOAD PREFETCHES:          0 PREFETCH ISSUED TO LOWER LEVEL:          0  ACCURACY: -nan
PSCL4 TIMELY PREFETCHES:          0 LATE PREFETCHES: 0 DROPPED PREFETCHES: 0
PSCL4 PREFETCHES SAME FILL-ORIGIN LEVEL: 0 DIFFERENT FILL-ORIGIN LEVEL: 0

PSCL3 TOTAL     ACCESS:     108454  HIT:     108454  MISS:          0  HIT %:        100  MISS %:          0   MPKI: 0
PSCL3 LOAD TRANSLATION ACCESS:      75305  HIT:      75305  MISS:          0  HIT %:        100  MISS %:          0   MPKI: 0
PSCL3 TRANSLATION FROM L1D PREFETCHER ACCESS:      33149  HIT:      33149  MISS:          0  HIT %:        100  MISS %:          0   MPKI: 0
PSCL3 PREFETCH  REQUESTED:          0  ISSUED:          0  USEFUL:          0  USELESS:          0
PSCL3 USEFUL LOAD PREFETCHES:          0 PREFETCH ISSUED TO LOWER LEVEL:          0  ACCURACY: -nan
PSCL3 TIMELY PREFETCHES:          0 LATE PREFETCHES: 0 DROPPED PREFETCHES: 0
PSCL3 PREFETCHES SAME FILL-ORIGIN LEVEL: 0 DIFFERENT FILL-ORIGIN LEVEL: 0

PSCL2 TOTAL     ACCESS:     108175  HIT:     108175  MISS:          0  HIT %:        100  MISS %:          0   MPKI: 0
PSCL2 LOAD TRANSLATION ACCESS:      75305  HIT:      75305  MISS:          0  HIT %:        100  MISS %:          0   MPKI: 0
PSCL2 TRANSLATION FROM L1D PREFETCHER ACCESS:      32870  HIT:      32870  MISS:          0  HIT %:        100  MISS %:          0   MPKI: 0
PSCL2 PREFETCH  REQUESTED:          0  ISSUED:          0  USEFUL:          0  USELESS:          0
PSCL2 USEFUL LOAD PREFETCHES:          0 PREFETCH ISSUED TO LOWER LEVEL:          0  ACCURACY: -nan
PSCL2 TIMELY PREFETCHES:          0 LATE PREFETCHES: 0 DROPPED PREFETCHES: 0
PSCL2 PREFETCHES SAME FILL-ORIGIN LEVEL: 0 DIFFERENT FILL-ORIGIN LEVEL: 0

LLC TOTAL     ACCESS:    3121294  HIT:     700797  MISS:    2420497  HIT %:    22.4521  MISS %:    77.5479   MPKI: 12.1025
LLC LOAD      ACCESS:     662973  HIT:     142090  MISS:     520883  HIT %:    21.4322  MISS %:    78.5678   MPKI: 2.60441
LLC RFO       ACCESS:     201630  HIT:     120624  MISS:      81006  HIT %:    59.8244  MISS %:    40.1756   MPKI: 0.40503
LLC PREFETCH  ACCESS:    1950214  HIT:     183226  MISS:    1766988  HIT %:    9.39517  MISS %:    90.6048   MPKI: 8.83494
LLC WRITEBACK ACCESS:     281042  HIT:     250025  MISS:      31017  HIT %:    88.9636  MISS %:    11.0364   MPKI: 0.155085
LLC LOAD TRANSLATION ACCESS:      21332  HIT:       3796  MISS:      17536  HIT %:    17.7949  MISS %:    82.2051   MPKI: 0.08768
LLC TRANSLATION FROM L1D PREFETCHER ACCESS:       4103  HIT:       1036  MISS:       3067  HIT %:    25.2498  MISS %:    74.7502   MPKI: 0.015335
LLC PREFETCH  REQUESTED:          0  ISSUED:          0  USEFUL:      18852  USELESS:    5940732
LLC USEFUL LOAD PREFETCHES:      18852 PREFETCH ISSUED TO LOWER LEVEL:   26007076  ACCURACY: 0.072488
LLC TIMELY PREFETCHES:      18852 LATE PREFETCHES: 0 DROPPED PREFETCHES: 0
LLC PREFETCHES SAME FILL-ORIGIN LEVEL: 0 DIFFERENT FILL-ORIGIN LEVEL: 0
LLC AVERAGE MISS LATENCY: 1246.69 cycles
LLC RQ	ACCESS:    3604529	FORWARD:          0	MERGED:          0	TO_CACHE:    3604511
LLC WQ	ACCESS:    1144795	FORWARD:         20	MERGED:          0	TO_CACHE:    1144795
LLC PQ	ACCESS:    8012732	FORWARD:          0	MERGED:          0	TO_CACHE:    8012730

LLC Dense regions hint to LLC: 0

RAW hits: 332390
Loads Generated: 51415553
Loads sent to L1D: 51083158
Stores Generated: 5187904
Stores sent to L1D: 5187904
Major fault: 0 Minor fault: 3472
Allocated PAGES: 13897

CPU 2 cumulative IPC: 0.875939 instructions: 200000003 cycles: 228326274
ITLB TOTAL     ACCESS:   32251874  HIT:   32251874  MISS:          0  HIT %:        100  MISS %:          0   MPKI: 0
ITLB LOAD TRANSLATION ACCESS:   32251874  HIT:   32251874  MISS:          0  HIT %:        100  MISS %:          0   MPKI: 0
ITLB PREFETCH  REQUESTED:          0  ISSUED:          0  USEFUL:          0  USELESS:          0
ITLB USEFUL LOAD PREFETCHES:          0 PREFETCH ISSUED TO LOWER LEVEL:          0  ACCURACY: -nan
ITLB TIMELY PREFETCHES:          0 LATE PREFETCHES: 0 DROPPED PREFETCHES: 0
ITLB PREFETCHES SAME FILL-ORIGIN LEVEL: 0 DIFFERENT FILL-ORIGIN LEVEL: 0
ITLB AVERAGE MISS LATENCY: -nan cycles
ITLB RQ	ACCESS:   38967688	FORWARD:          0	MERGED:    5710419	TO_CACHE:   33257269

DTLB TOTAL     ACCESS:   28702459  HIT:   28419583  MISS:     282876  HIT %:    99.0145  MISS %:   0.985546   MPKI: 1.41438
DTLB LOAD TRANSLATION ACCESS:   28702459  HIT:   28419583  MISS:     282876  HIT %:    99.0145  MISS %:   0.985546   MPKI: 1.41438
DTLB PREFETCH  REQUESTED:          0  ISSUED:          0  USEFUL:          0  USELESS:          0
DTLB USEFUL LOAD PREFETCHES:          0 PREFETCH ISSUED TO LOWER LEVEL:          0  ACCURACY: -nan
DTLB TIMELY PREFETCHES:          0 LATE PREFETCHES: 0 DROPPED PREFETCHES: 0
DTLB PREFETCHES SAME FILL-ORIGIN LEVEL: 0 DIFFERENT FILL-ORIGIN LEVEL: 0
DTLB AVERAGE MISS LATENCY: 39.6569 cycles
DTLB RQ	ACCESS:   36872522	FORWARD:          0	MERGED:    7191143	TO_CACHE:   29681379

STLB TOTAL     ACCESS:   11606230  HIT:   11502946  MISS:     103284  HIT %:    99.1101  MISS %:   0.889901   MPKI: 0.51642
STLB LOAD TRANSLATION ACCESS:     282876  HIT:     207116  MISS:      75760  HIT %:    73.2179  MISS %:    26.7821   MPKI: 0.3788
STLB TRANSLATION FROM L1D PREFETCHER ACCESS:   11323354  HIT:   11295830  MISS:      27524  HIT %:    99.7569  MISS %:   0.243073   MPKI: 0.13762
STLB PREFETCH  REQUESTED:          0  ISSUED:          0  USEFUL:      27282  USELESS:        257
STLB USEFUL LOAD PREFETCHES:      27282 PREFETCH ISSUED TO LOWER LEVEL:          0  ACCURACY: inf
STLB TIMELY PREFETCHES:      27282 LATE PREFETCHES: 308 DROPPED PREFETCHES: 4772
STLB PREFETCHES SAME FILL-ORIGIN LEVEL: 0 DIFFERENT FILL-ORIGIN LEVEL: 0
STLB AVERAGE MISS LATENCY: 102.796 cycles
STLB RQ	ACCESS:   47849595	FORWARD:          0	MERGED:   35760073	TO_CACHE:   12089522

STLB Hit, L1D data hit: 0
STLB Hit, L2C data hit: 0
STLB Hit, LLC data hit: 0
STLB Hit, LLC data miss: 0
STLB STLB hints to L2: 0
L1D TOTAL     ACCESS:   70552397  HIT:   67353845  MISS:    3198552  HIT %:    95.4664  MISS %:    4.53358   MPKI: 15.9928
L1D LOAD      ACCESS:   29754858  HIT:   28231043  MISS:    1523815  HIT %:    94.8788  MISS %:    5.12123   MPKI: 7.61907
L1D RFO       ACCESS:    4046018  HIT:    3816840  MISS:     229178  HIT %:    94.3357  MISS %:    5.66429   MPKI: 1.14589
L1D PREFETCH  ACCESS:   36751521  HIT:   35305962  MISS:    1445559  HIT %:    96.0667  MISS %:    3.93333   MPKI: 7.22779
L1D PREFETCH  REQUESTED:  130506201  ISSUED:  114815251  USEFUL:    1475920  USELESS:      30125
L1D USEFUL LOAD PREFETCHES:    1475920 PREFETCH ISSUED TO LOWER LEVEL:    8630478  ACCURACY: 17.1013
L1D TIMELY PREFETCHES:    1475920 LATE PREFETCHES: 15143 DROPPED PREFETCHES: 10312
L1D PREFETCHES SAME FILL-ORIGIN LEVEL: 1529018 DIFFERENT FILL-ORIGIN LEVEL: 7101460
L1D AVERAGE MISS LATENCY: 169.705 cycles
L1D RQ	ACCESS:   52747554	FORWARD:          0	MERGED:   21077727	TO_CACHE:   31596592
L1D WQ	ACCESS:    5298061	FORWARD:      73235	MERGED:      22131	TO_CACHE:    5275930
L1D PQ	ACCESS:   67252243	FORWARD:          0	MERGED:   19689235	TO_CACHE:   47563008

L1D UNIQUE REGIONS ACCESSED: 0
L1D REGIONS CONFLICTS: 0
L1D Cross Page Prefetch Requests: 14815233
L1D Same Page Prefetch Requests: 72385829
L1D ROI Sum of L1D PQ occupancy: 634351248
L1D PREFETCHES PUSHED FROM L2C: 0
L1I TOTAL     ACCESS:   37749657  HIT:   37749314  MISS:        343  HIT %:    99.9991  MISS %: 0.000908618   MPKI: 0.001715
L1I LOAD      ACCESS:   37749657  HIT:   37749314  MISS:        343  HIT %:    99.9991  MISS %: 0.000908618   MPKI: 0.001715
L1I PREFETCH  REQUESTED:          0  ISSUED:          0  USEFUL:          0  USELESS:          0
L1I USEFUL LOAD PREFETCHES:          0 PREFETCH ISSUED TO LOWER LEVEL:          0  ACCURACY: -nan
L1I TIMELY PREFETCHES:          0 LATE PREFETCHES: 0 DROPPED PREFETCHES: 0
L1I PREFETCHES SAME FILL-ORIGIN LEVEL: 0 DIFFERENT FILL-ORIGIN LEVEL: 0
L1I AVERAGE MISS LATENCY: 282.525 cycles
L1I RQ	ACCESS:   52551679	FORWARD:          0	MERGED:   13583991	TO_CACHE:   38967688

BTB TOTAL     ACCESS:   17205395  HIT:   17137994  MISS:      67401  HIT %:    99.6083  MISS %:   0.391743   MPKI: 0.337005
BTB BRANCH_DIRECT_JUMP	ACCESS:     485487  HIT:     485388  MISS:         99
BTB BRANCH_INDIRECT	ACCESS:          0  HIT:          0  MISS:          0
BTB BRANCH_CONDITIONAL	ACCESS:   16108386  HIT:   16108040  MISS:        346
BTB BRANCH_DIRECT_CALL	ACCESS:     305699  HIT:     305551  MISS:        148
BTB BRANCH_INDIRECT_CALL	ACCESS:         62  HIT:         61  MISS:          1
BTB BRANCH_RETURN	ACCESS:     305761  HIT:     238954  MISS:      66807
BTB BRANCH_OTHER ACCESS:          0  HIT:          0  MISS:          0

L2C TOTAL     ACCESS:    8312326  HIT:    5406558  MISS:    2905768  HIT %:    65.0427  MISS %:    34.9573   MPKI: 14.5288
L2C LOAD      ACCESS:    1509222  HIT:     769410  MISS:     739812  HIT %:    50.9806  MISS %:    49.0194   MPKI: 3.69906
L2C DATA LOAD MPKI: 3.69734
L2C INSTRUCTION LOAD MPKI: 0.001715
L2C RFO       ACCESS:     229152  HIT:      27047  MISS:     202105  HIT %:    11.8031  MISS %:    88.1969   MPKI: 1.01052
L2C PREFETCH  ACCESS:    6141806  HIT:    4262970  MISS:    1878836  HIT %:    69.4091  MISS %:    30.5909   MPKI: 9.39418
L2C DATA PREFETCH MPKI: 9.39418
L2C INSTRUCTION PREFETCH MPKI: 0
L2C WRITEBACK ACCESS:     324111  HIT:     264386  MISS:      59725  HIT %:    81.5727  MISS %:    18.4273   MPKI: 0.298625
L2C LOAD TRANSLATION ACCESS:      75463  HIT:      54151  MISS:      21312  HIT %:    71.7583  MISS %:    28.2417   MPKI: 0.10656
L2C TRANSLATION FROM L1D PREFETCHER ACCESS:      32572  HIT:      28594  MISS:       3978  HIT %:    87.7871  MISS %:    12.2129   MPKI: 0.01989
L2C PREFETCH  REQUESTED:          0  ISSUED:          0  USEFUL:     361120  USELESS:    1592274
L2C USEFUL LOAD PREFETCHES:     361120 PREFETCH ISSUED TO LOWER LEVEL:    2026611  ACCURACY: 17.8189
L2C TIMELY PREFETCHES:     361120 LATE PREFETCHES: 79989 DROPPED PREFETCHES: 0
L2C PREFETCHES SAME FILL-ORIGIN LEVEL: 1055693 DIFFERENT FILL-ORIGIN LEVEL: 0
L2C AVERAGE MISS LATENCY: 286.564 cycles
L2C RQ	ACCESS:    1877070	FORWARD:          0	MERGED:          0	TO_CACHE:    1877057
L2C WQ	ACCESS:     332590	FORWARD:         13	MERGED:          0	TO_CACHE:     332590
L2C PQ	ACCESS:    8490498	FORWARD:          0	MERGED:      98389	TO_CACHE:    8392109

L2C Instructions Evicting Data 347
L2C Translations Evicting Data 25190
L2C Data Evicting Data 2879576
L2C Instructions Evicting Instructions 7
L2C Translations Evicting Instructions 0
L2C Data Evicting Instructions 337
L2C Instructions Evicting Translations 4
L2C Translations Evicting Translations 233
L2C Data Evicting Translations 24721
L2C Dense regions hint from L2: 0
PSCL5 TOTAL     ACCESS:     108035  HIT:     108035  MISS:          0  HIT %:        100  MISS %:          0   MPKI: 0
PSCL5 LOAD TRANSLATION ACCESS:      75463  HIT:      75463  MISS:          0  HIT %:        100  MISS %:          0   MPKI: 0
PSCL5 TRANSLATION FROM L1D PREFETCHER ACCESS:      32572  HIT:      32572  MISS:          0  HIT %:        100  MISS %:          0   MPKI: 0
PSCL5 PREFETCH  REQUESTED:          0  ISSUED:          0  USEFUL:          0  USELESS:          0
PSCL5 USEFUL LOAD PREFETCHES:          0 PREFETCH ISSUED TO LOWER LEVEL:          0  ACCURACY: -nan
PSCL5 TIMELY PREFETCHES:          0 LATE PREFETCHES: 0 DROPPED PREFETCHES: 0
PSCL5 PREFETCHES SAME FILL-ORIGIN LEVEL: 0 DIFFERENT FILL-ORIGIN LEVEL: 0

PSCL4 TOTAL     ACCESS:     108035  HIT:     108035  MISS:          0  HIT %:        100  MISS %:          0   MPKI: 0
PSCL4 LOAD TRANSLATION ACCESS:      75463  HIT:      75463  MISS:          0  HIT %:        100  MISS %:          0   MPKI: 0
PSCL4 TRANSLATION FROM L1D PREFETCHER ACCESS:      32572  HIT:      32572  MISS:          0  HIT %:        100  MISS %:          0   MPKI: 0
PSCL4 PREFETCH  REQUESTED:          0  ISSUED:          0  USEFUL:          0  USELESS:          0
PSCL4 USEFUL LOAD PREFETCHES:          0 PREFETCH ISSUED TO LOWER LEVEL:          0  ACCURACY: -nan
PSCL4 TIMELY PREFETCHES:          0 LATE PREFETCHES: 0 DROPPED PREFETCHES: 0
PSCL4 PREFETCHES SAME FILL-ORIGIN LEVEL: 0 DIFFERENT FILL-ORIGIN LEVEL: 0

PSCL3 TOTAL     ACCESS:     108035  HIT:     108035  MISS:          0  HIT %:        100  MISS %:          0   MPKI: 0
PSCL3 LOAD TRANSLATION ACCESS:      75463  HIT:      75463  MISS:          0  HIT %:        100  MISS %:          0   MPKI: 0
PSCL3 TRANSLATION FROM L1D PREFETCHER ACCESS:      32572  HIT:      32572  MISS:          0  HIT %:        100  MISS %:          0   MPKI: 0
PSCL3 PREFETCH  REQUESTED:          0  ISSUED:          0  USEFUL:          0  USELESS:          0
PSCL3 USEFUL LOAD PREFETCHES:          0 PREFETCH ISSUED TO LOWER LEVEL:          0  ACCURACY: -nan
PSCL3 TIMELY PREFETCHES:          0 LATE PREFETCHES: 0 DROPPED PREFETCHES: 0
PSCL3 PREFETCHES SAME FILL-ORIGIN LEVEL: 0 DIFFERENT FILL-ORIGIN LEVEL: 0

PSCL2 TOTAL     ACCESS:     107770  HIT:     107770  MISS:          0  HIT %:        100  MISS %:          0   MPKI: 0
PSCL2 LOAD TRANSLATION ACCESS:      75463  HIT:      75463  MISS:          0  HIT %:        100  MISS %:          0   MPKI: 0
PSCL2 TRANSLATION FROM L1D PREFETCHER ACCESS:      32307  HIT:      32307  MISS:          0  HIT %:        100  MISS %:          0   MPKI: 0
PSCL2 PREFETCH  REQUESTED:          0  ISSUED:          0  USEFUL:          0  USELESS:          0
PSCL2 USEFUL LOAD PREFETCHES:          0 PREFETCH ISSUED TO LOWER LEVEL:          0  ACCURACY: -nan
PSCL2 TIMELY PREFETCHES:          0 LATE PREFETCHES: 0 DROPPED PREFETCHES: 0
PSCL2 PREFETCHES SAME FILL-ORIGIN LEVEL: 0 DIFFERENT FILL-ORIGIN LEVEL: 0

LLC TOTAL     ACCESS:    3126189  HIT:    1163264  MISS:    1962925  HIT %:    37.2103  MISS %:    62.7897   MPKI: 9.81462
LLC LOAD      ACCESS:     660705  HIT:     173829  MISS:     486876  HIT %:    26.3096  MISS %:    73.6904   MPKI: 2.43438
LLC RFO       ACCESS:     202100  HIT:     130079  MISS:      72021  HIT %:    64.3637  MISS %:    35.6363   MPKI: 0.360105
LLC PREFETCH  ACCESS:    1957939  HIT:     577366  MISS:    1380573  HIT %:    29.4885  MISS %:    70.5115   MPKI: 6.90286
LLC WRITEBACK ACCESS:     280155  HIT:     276835  MISS:       3320  HIT %:    98.8149  MISS %:    1.18506   MPKI: 0.0166
LLC LOAD TRANSLATION ACCESS:      21312  HIT:       4273  MISS:      17039  HIT %:    20.0497  MISS %:    79.9503   MPKI: 0.085195
LLC TRANSLATION FROM L1D PREFETCHER ACCESS:       3978  HIT:        882  MISS:       3096  HIT %:    22.1719  MISS %:    77.8281   MPKI: 0.01548
LLC PREFETCH  REQUESTED:          0  ISSUED:          0  USEFUL:      18852  USELESS:    5940732
LLC USEFUL LOAD PREFETCHES:      18852 PREFETCH ISSUED TO LOWER LEVEL:   26007076  ACCURACY: 0.072488
LLC TIMELY PREFETCHES:      18852 LATE PREFETCHES: 0 DROPPED PREFETCHES: 0
LLC PREFETCHES SAME FILL-ORIGIN LEVEL: 0 DIFFERENT FILL-ORIGIN LEVEL: 0
LLC AVERAGE MISS LATENCY: 1537.3 cycles
LLC RQ	ACCESS:    3604529	FORWARD:          0	MERGED:          0	TO_CACHE:    3604511
LLC WQ	ACCESS:    1144795	FORWARD:         20	MERGED:          0	TO_CACHE:    1144795
LLC PQ	ACCESS:    8012732	FORWARD:          0	MERGED:          0	TO_CACHE:    8012730

LLC Dense regions hint to LLC: 0

RAW hits: 331424
Loads Generated: 51415551
Loads sent to L1D: 51084127
Stores Generated: 5187904
Stores sent to L1D: 5187904
Major fault: 0 Minor fault: 3475
Allocated PAGES: 13897

CPU 3 cumulative IPC: 0.875311 instructions: 200000001 cycles: 228490194
ITLB TOTAL     ACCESS:   32255435  HIT:   32255435  MISS:          0  HIT %:        100  MISS %:          0   MPKI: 0
ITLB LOAD TRANSLATION ACCESS:   32255435  HIT:   32255435  MISS:          0  HIT %:        100  MISS %:          0   MPKI: 0
ITLB PREFETCH  REQUESTED:          0  ISSUED:          0  USEFUL:          0  USELESS:          0
ITLB USEFUL LOAD PREFETCHES:          0 PREFETCH ISSUED TO LOWER LEVEL:          0  ACCURACY: -nan
ITLB TIMELY PREFETCHES:          0 LATE PREFETCHES: 0 DROPPED PREFETCHES: 0
ITLB PREFETCHES SAME FILL-ORIGIN LEVEL: 0 DIFFERENT FILL-ORIGIN LEVEL: 0
ITLB AVERAGE MISS LATENCY: -nan cycles
ITLB RQ	ACCESS:   38958964	FORWARD:          0	MERGED:    5707933	TO_CACHE:   33251031

DTLB TOTAL     ACCESS:   28703623  HIT:   28420763  MISS:     282860  HIT %:    99.0145  MISS %:   0.985451   MPKI: 1.4143
DTLB LOAD TRANSLATION ACCESS:   28703623  HIT:   28420763  MISS:     282860  HIT %:    99.0145  MISS %:   0.985451   MPKI: 1.4143
DTLB PREFETCH  REQUESTED:          0  ISSUED:          0  USEFUL:          0  USELESS:          0
DTLB USEFUL LOAD PREFETCHES:          0 PREFETCH ISSUED TO LOWER LEVEL:          0  ACCURACY: -nan
DTLB TIMELY PREFETCHES:          0 LATE PREFETCHES: 0 DROPPED PREFETCHES: 0
DTLB PREFETCHES SAME FILL-ORIGIN LEVEL: 0 DIFFERENT FILL-ORIGIN LEVEL: 0
DTLB AVERAGE MISS LATENCY: 38.2617 cycles
DTLB RQ	ACCESS:   36862110	FORWARD:          0	MERGED:    7188650	TO_CACHE:   29673460

STLB TOTAL     ACCESS:   11566422  HIT:   11463193  MISS:     103229  HIT %:    99.1075  MISS %:   0.892489   MPKI: 0.516145
STLB LOAD TRANSLATION ACCESS:     282860  HIT:     207280  MISS:      75580  HIT %:    73.2801  MISS %:    26.7199   MPKI: 0.3779
STLB TRANSLATION FROM L1D PREFETCHER ACCESS:   11283562  HIT:   11255913  MISS:      27649  HIT %:     99.755  MISS %:   0.245038   MPKI: 0.138245
STLB PREFETCH  REQUESTED:          0  ISSUED:          0  USEFUL:      27382  USELESS:        284
STLB USEFUL LOAD PREFETCHES:      27382 PREFETCH ISSUED TO LOWER LEVEL:          0  ACCURACY: inf
STLB TIMELY PREFETCHES:      27382 LATE PREFETCHES: 250 DROPPED PREFETCHES: 4913
STLB PREFETCHES SAME FILL-ORIGIN LEVEL: 0 DIFFERENT FILL-ORIGIN LEVEL: 0
STLB AVERAGE MISS LATENCY: 99.9631 cycles
STLB RQ	ACCESS:   47943456	FORWARD:          0	MERGED:   35895616	TO_CACHE:   12047840

STLB Hit, L1D data hit: 0
STLB Hit, L2C data hit: 0
STLB Hit, LLC data hit: 0
STLB Hit, LLC data miss: 0
STLB STLB hints to L2: 0
L1D TOTAL     ACCESS:   70663910  HIT:   67465292  MISS:    3198618  HIT %:    95.4735  MISS %:    4.52652   MPKI: 15.9931
L1D LOAD      ACCESS:   29754908  HIT:   28229988  MISS:    1524920  HIT %:    94.8751  MISS %:    5.12494   MPKI: 7.6246
L1D RFO       ACCESS:    4045747  HIT:    3816549  MISS:     229198  HIT %:    94.3348  MISS %:    5.66516   MPKI: 1.14599
L1D PREFETCH  ACCESS:   36863255  HIT:   35418755  MISS:    1444500  HIT %:    96.0815  MISS %:    3.91854   MPKI: 7.2225
L1D PREFETCH  REQUESTED:  130941858  ISSUED:  115109675  USEFUL:    1474368  USELESS:      30204
L1D USEFUL LOAD PREFETCHES:    1474368 PREFETCH ISSUED TO LOWER LEVEL:    8660172  ACCURACY: 17.0247
L1D TIMELY PREFETCHES:    1474368 LATE PREFETCHES: 14652 DROPPED PREFETCHES: 10650
L1D PREFETCHES SAME FILL-ORIGIN LEVEL: 1528973 DIFFERENT FILL-ORIGIN LEVEL: 7131199
L1D AVERAGE MISS LATENCY: 167.677 cycles
L1D RQ	ACCESS:   52733940	FORWARD:          0	MERGED:   21072363	TO_CACHE:   31588309
L1D WQ	ACCESS:    5295922	FORWARD:      73268	MERGED:      22121	TO_CACHE:    5273801
L1D PQ	ACCESS:   67452618	FORWARD:          0	MERGED:   19795561	TO_CACHE:   47657057

L1D UNIQUE REGIONS ACCESSED: 0
L1D REGIONS CONFLICTS: 0
L1D Cross Page Prefetch Requests: 14794412
L1D Same Page Prefetch Requests: 72584325
L1D ROI Sum of L1D PQ occupancy: 636232619
L1D PREFETCHES PUSHED FROM L2C: 0
L1I TOTAL     ACCESS:   37752722  HIT:   37752379  MISS:        343  HIT %:    99.9991  MISS %: 0.000908544   MPKI: 0.001715
L1I LOAD      ACCESS:   37752722  HIT:   37752379  MISS:        343  HIT %:    99.9991  MISS %: 0.000908544   MPKI: 0.001715
L1I PREFETCH  REQUESTED:          0  ISSUED:          0  USEFUL:          0  USELESS:          0
L1I USEFUL LOAD PREFETCHES:          0 PREFETCH ISSUED TO LOWER LEVEL:          0  ACCURACY: -nan
L1I TIMELY PREFETCHES:          0 LATE PREFETCHES: 0 DROPPED PREFETCHES: 0
L1I PREFETCHES SAME FILL-ORIGIN LEVEL: 0 DIFFERENT FILL-ORIGIN LEVEL: 0
L1I AVERAGE MISS LATENCY: 290.411 cycles
L1I RQ	ACCESS:   52545977	FORWARD:          0	MERGED:   13587013	TO_CACHE:   38958964

BTB TOTAL     ACCESS:   17205395  HIT:   17137994  MISS:      67401  HIT %:    99.6083  MISS %:   0.391743   MPKI: 0.337005
BTB BRANCH_DIRECT_JUMP	ACCESS:     485487  HIT:     485388  MISS:         99
BTB BRANCH_INDIRECT	ACCESS:          0  HIT:          0  MISS:          0
BTB BRANCH_CONDITIONAL	ACCESS:   16108386  HIT:   16108040  MISS:        346
BTB BRANCH_DIRECT_CALL	ACCESS:     305699  HIT:     305551  MISS:        148
BTB BRANCH_INDIRECT_CALL	ACCESS:         62  HIT:         61  MISS:          1
BTB BRANCH_RETURN	ACCESS:     305761  HIT:     238954  MISS:      66807
BTB BRANCH_OTHER ACCESS:          0  HIT:          0  MISS:          0

L2C TOTAL     ACCESS:    8280166  HIT:    5371717  MISS:    2908449  HIT %:    64.8745  MISS %:    35.1255   MPKI: 14.5422
L2C LOAD      ACCESS:    1510885  HIT:     764879  MISS:     746006  HIT %:    50.6246  MISS %:    49.3754   MPKI: 3.73003
L2C DATA LOAD MPKI: 3.72831
L2C INSTRUCTION LOAD MPKI: 0.001715
L2C RFO       ACCESS:     229182  HIT:      30057  MISS:     199125  HIT %:    13.1149  MISS %:    86.8851   MPKI: 0.995625
L2C PREFETCH  ACCESS:    6107868  HIT:    4226954  MISS:    1880914  HIT %:    69.2051  MISS %:    30.7949   MPKI: 9.40457
L2C DATA PREFETCH MPKI: 9.40457
L2C INSTRUCTION PREFETCH MPKI: 0
L2C WRITEBACK ACCESS:     324115  HIT:     266897  MISS:      57218  HIT %:    82.3464  MISS %:    17.6536   MPKI: 0.28609
L2C LOAD TRANSLATION ACCESS:      75334  HIT:      54080  MISS:      21254  HIT %:     71.787  MISS %:     28.213   MPKI: 0.10627
L2C TRANSLATION FROM L1D PREFETCHER ACCESS:      32782  HIT:      28850  MISS:       3932  HIT %:    88.0056  MISS %:    11.9944   MPKI: 0.01966
L2C PREFETCH  REQUESTED:          0  ISSUED:          0  USEFUL:     366075  USELESS:    1588681
L2C USEFUL LOAD PREFETCHES:     366075 PREFETCH ISSUED TO LOWER LEVEL:    2028472  ACCURACY: 18.0468
L2C TIMELY PREFETCHES:     366075 LATE PREFETCHES: 79996 DROPPED PREFETCHES: 0
L2C PREFETCHES SAME FILL-ORIGIN LEVEL: 1077984 DIFFERENT FILL-ORIGIN LEVEL: 0
L2C AVERAGE MISS LATENCY: 284.809 cycles
L2C RQ	ACCESS:    1878022	FORWARD:          0	MERGED:          0	TO_CACHE:    1878011
L2C WQ	ACCESS:     332567	FORWARD:         11	MERGED:          0	TO_CACHE:     332567
L2C PQ	ACCESS:    8536284	FORWARD:          0	MERGED:      98053	TO_CACHE:    8438231

L2C Instructions Evicting Data 344
L2C Translations Evicting Data 24931
L2C Data Evicting Data 2884511
L2C Instructions Evicting Instructions 3
L2C Translations Evicting Instructions 1
L2C Data Evicting Instructions 339
L2C Instructions Evicting Translations 11
L2C Translations Evicting Translations 371
L2C Data Evicting Translations 24348
L2C Dense regions hint from L2: 0
PSCL5 TOTAL     ACCESS:     108116  HIT:     108116  MISS:          0  HIT %:        100  MISS %:          0   MPKI: 0
PSCL5 LOAD TRANSLATION ACCESS:      75334  HIT:      75334  MISS:          0  HIT %:        100  MISS %:          0   MPKI: 0
PSCL5 TRANSLATION FROM L1D PREFETCHER ACCESS:      32782  HIT:      32782  MISS:          0  HIT %:        100  MISS %:          0   MPKI: 0
PSCL5 PREFETCH  REQUESTED:          0  ISSUED:          0  USEFUL:          0  USELESS:          0
PSCL5 USEFUL LOAD PREFETCHES:          0 PREFETCH ISSUED TO LOWER LEVEL:          0  ACCURACY: -nan
PSCL5 TIMELY PREFETCHES:          0 LATE PREFETCHES: 0 DROPPED PREFETCHES: 0
PSCL5 PREFETCHES SAME FILL-ORIGIN LEVEL: 0 DIFFERENT FILL-ORIGIN LEVEL: 0

PSCL4 TOTAL     ACCESS:     108116  HIT:     108116  MISS:          0  HIT %:        100  MISS %:          0   MPKI: 0
PSCL4 LOAD TRANSLATION ACCESS:      75334  HIT:      75334  MISS:          0  HIT %:        100  MISS %:          0   MPKI: 0
PSCL4 TRANSLATION FROM L1D PREFETCHER ACCESS:      32782  HIT:      32782  MISS:          0  HIT %:        100  MISS %:          0   MPKI: 0
PSCL4 PREFETCH  REQUESTED:          0  ISSUED:          0  USEFUL:          0  USELESS:          0
PSCL4 USEFUL LOAD PREFETCHES:          0 PREFETCH ISSUED TO LOWER LEVEL:          0  ACCURACY: -nan
PSCL4 TIMELY PREFETCHES:          0 LATE PREFETCHES: 0 DROPPED PREFETCHES: 0
PSCL4 PREFETCHES SAME FILL-ORIGIN LEVEL: 0 DIFFERENT FILL-ORIGIN LEVEL: 0

PSCL3 TOTAL     ACCESS:     108116  HIT:     108116  MISS:          0  HIT %:        100  MISS %:          0   MPKI: 0
PSCL3 LOAD TRANSLATION ACCESS:      75334  HIT:      75334  MISS:          0  HIT %:        100  MISS %:          0   MPKI: 0
PSCL3 TRANSLATION FROM L1D PREFETCHER ACCESS:      32782  HIT:      32782  MISS:          0  HIT %:        100  MISS %:          0   MPKI: 0
PSCL3 PREFETCH  REQUESTED:          0  ISSUED:          0  USEFUL:          0  USELESS:          0
PSCL3 USEFUL LOAD PREFETCHES:          0 PREFETCH ISSUED TO LOWER LEVEL:          0  ACCURACY: -nan
PSCL3 TIMELY PREFETCHES:          0 LATE PREFETCHES: 0 DROPPED PREFETCHES: 0
PSCL3 PREFETCHES SAME FILL-ORIGIN LEVEL: 0 DIFFERENT FILL-ORIGIN LEVEL: 0

PSCL2 TOTAL     ACCESS:     107779  HIT:     107779  MISS:          0  HIT %:        100  MISS %:          0   MPKI: 0
PSCL2 LOAD TRANSLATION ACCESS:      75334  HIT:      75334  MISS:          0  HIT %:        100  MISS %:          0   MPKI: 0
PSCL2 TRANSLATION FROM L1D PREFETCHER ACCESS:      32445  HIT:      32445  MISS:          0  HIT %:        100  MISS %:          0   MPKI: 0
PSCL2 PREFETCH  REQUESTED:          0  ISSUED:          0  USEFUL:          0  USELESS:          0
PSCL2 USEFUL LOAD PREFETCHES:          0 PREFETCH ISSUED TO LOWER LEVEL:          0  ACCURACY: -nan
PSCL2 TIMELY PREFETCHES:          0 LATE PREFETCHES: 0 DROPPED PREFETCHES: 0
PSCL2 PREFETCHES SAME FILL-ORIGIN LEVEL: 0 DIFFERENT FILL-ORIGIN LEVEL: 0

LLC TOTAL     ACCESS:    3131937  HIT:    1190822  MISS:    1941115  HIT %:    38.0219  MISS %:    61.9781   MPKI: 9.70557
LLC LOAD      ACCESS:     666790  HIT:     179494  MISS:     487296  HIT %:    26.9191  MISS %:    73.0809   MPKI: 2.43648
LLC RFO       ACCESS:     199123  HIT:     123704  MISS:      75419  HIT %:    62.1244  MISS %:    37.8756   MPKI: 0.377095
LLC PREFETCH  ACCESS:    1960130  HIT:     604385  MISS:    1355745  HIT %:    30.8339  MISS %:    69.1661   MPKI: 6.77872
LLC WRITEBACK ACCESS:     280708  HIT:     277122  MISS:       3586  HIT %:    98.7225  MISS %:    1.27748   MPKI: 0.01793
LLC LOAD TRANSLATION ACCESS:      21254  HIT:       5273  MISS:      15981  HIT %:    24.8094  MISS %:    75.1906   MPKI: 0.079905
LLC TRANSLATION FROM L1D PREFETCHER ACCESS:       3932  HIT:        844  MISS:       3088  HIT %:    21.4649  MISS %:    78.5351   MPKI: 0.01544
LLC PREFETCH  REQUESTED:          0  ISSUED:          0  USEFUL:      18852  USELESS:    5940732
LLC USEFUL LOAD PREFETCHES:      18852 PREFETCH ISSUED TO LOWER LEVEL:   26007076  ACCURACY: 0.072488
LLC TIMELY PREFETCHES:      18852 LATE PREFETCHES: 0 DROPPED PREFETCHES: 0
LLC PREFETCHES SAME FILL-ORIGIN LEVEL: 0 DIFFERENT FILL-ORIGIN LEVEL: 0
LLC AVERAGE MISS LATENCY: 1554.58 cycles
LLC RQ	ACCESS:    3604529	FORWARD:          0	MERGED:          0	TO_CACHE:    3604511
LLC WQ	ACCESS:    1144795	FORWARD:         20	MERGED:          0	TO_CACHE:    1144795
LLC PQ	ACCESS:    8012732	FORWARD:          0	MERGED:          0	TO_CACHE:    8012730

LLC Dense regions hint to LLC: 0

RAW hits: 331532
Loads Generated: 51415552
Loads sent to L1D: 51084020
Stores Generated: 5187902
Stores sent to L1D: 5187904
Major fault: 0 Minor fault: 3475
Allocated PAGES: 13897

DRAM Statistics
 CHANNEL 0
 RQ ROW_BUFFER_HIT:    2502265  ROW_BUFFER_MISS:    5830926
 DBUS_CONGESTED:        455
 WQ ROW_BUFFER_HIT:      57658  ROW_BUFFER_MISS:     457654  FULL:          0

 AVG_CONGESTED_CYCLE: 4
 All warmup complete: 5
Channel 0 Bank busy for read cycles: 0
Channel 0 Bank busy for write cycles: 0
Channel 0
Rank 0
0banks busy for read cycles: 4407798
0banks busy for write cycles: 1864
1banks busy for read cycles: 12125250
1banks busy for write cycles: 526142
2banks busy for read cycles: 23566388
2banks busy for write cycles: 267351
3banks busy for read cycles: 32777213
3banks busy for write cycles: 202346
4banks busy for read cycles: 34773816
4banks busy for write cycles: 184037
5banks busy for read cycles: 30987240
5banks busy for write cycles: 177595
6banks busy for read cycles: 24831759
6banks busy for write cycles: 368004
7banks busy for read cycles: 21212488
7banks busy for write cycles: 2249746
8banks busy for read cycles: 33248948
8banks busy for write cycles: 11389856

CPU 0 Branch Prediction Accuracy: 98.959% MPKI: 0.961914 Average ROB Occupancy at Mispredict: 114.845
Branch types
NOT_BRANCH: 187560738 90.7596%
BRANCH_DIRECT_JUMP: 500978 0.24242%
BRANCH_INDIRECT: 0 0%
BRANCH_CONDITIONAL: 17974671 8.69784%
BRANCH_DIRECT_CALL: 310086 0.150049%
BRANCH_INDIRECT_CALL: 62 3.00014e-05%
BRANCH_RETURN: 310148 0.150079%
BRANCH_OTHER: 0 0%


CPU 1 Branch Prediction Accuracy: 98.9411% MPKI: 0.981067 Average ROB Occupancy at Mispredict: 115.665
Branch types
NOT_BRANCH: 181468965 90.7345%
BRANCH_DIRECT_JUMP: 485487 0.242744%
BRANCH_INDIRECT: 0 0%
BRANCH_CONDITIONAL: 17433729 8.71686%
BRANCH_DIRECT_CALL: 305699 0.152849%
BRANCH_INDIRECT_CALL: 62 3.1e-05%
BRANCH_RETURN: 305761 0.152881%
BRANCH_OTHER: 0 0%


CPU 2 Branch Prediction Accuracy: 98.959% MPKI: 0.962028 Average ROB Occupancy at Mispredict: 114.91
Branch types
NOT_BRANCH: 187582244 90.7589%
BRANCH_DIRECT_JUMP: 501268 0.242531%
BRANCH_INDIRECT: 0 0%
BRANCH_CONDITIONAL: 17977962 8.69837%
BRANCH_DIRECT_CALL: 310198 0.150085%
BRANCH_INDIRECT_CALL: 62 2.99978e-05%
BRANCH_RETURN: 310260 0.150115%
BRANCH_OTHER: 0 0%


CPU 3 Branch Prediction Accuracy: 98.9591% MPKI: 0.961782 Average ROB Occupancy at Mispredict: 114.878
Branch types
NOT_BRANCH: 187539366 90.7599%
BRANCH_DIRECT_JUMP: 500816 0.242371%
BRANCH_INDIRECT: 0 0%
BRANCH_CONDITIONAL: 17972011 8.69758%
BRANCH_DIRECT_CALL: 309992 0.150021%
BRANCH_INDIRECT_CALL: 62 3.0005e-05%
BRANCH_RETURN: 310054 0.150051%
BRANCH_OTHER: 0 0%

DRAM PAGES: 1048576
Allocated PAGES: 13897
