
*** ChampSim Multicore Out-of-Order Simulator ***

Warmup Instructions: 50000000
Simulation Instructions: 200000000
Number of CPUs: 4
LLC sets: 8192
LLC ways: 16
Off-chip DRAM Size: 4096 MB Channels: 1 Width: 64-bit Data Rate: 6400 MT/s
CPU 0 runs ./traces/cs/streaming_phase5_core0.trace.xz
.xz
CPU 1 runs ./traces/cs/streaming_phase5_core1.trace.xz
.xz
CPU 2 runs ./traces/cs/streaming_phase5_core2.trace.xz
.xz
CPU 3 runs ./traces/cs/streaming_phase5_core3.trace.xz
.xz
BTB has LRU replacement policy
ITLB has LRU replacement policy
DTLB has LRU replacement policy
STLB has LRU replacement policy
L1I has LRU replacement policy
History Sets: 8
History Ways: 16
BERTI Size: 16
BERTI Stride Size: 8
L1D has LRU replacement policy
Initialize SRRIP state for L2C
Initialize DRRIP state for LLC
BTB has LRU replacement policy
ITLB has LRU replacement policy
DTLB has LRU replacement policy
STLB has LRU replacement policy
L1I has LRU replacement policy
History Sets: 8
History Ways: 16
BERTI Size: 16
BERTI Stride Size: 8
L1D has LRU replacement policy
Initialize SRRIP state for L2C
Initialize DRRIP state for LLC
BTB has LRU replacement policy
ITLB has LRU replacement policy
DTLB has LRU replacement policy
STLB has LRU replacement policy
L1I has LRU replacement policy
History Sets: 8
History Ways: 16
BERTI Size: 16
BERTI Stride Size: 8
L1D has LRU replacement policy
Initialize SRRIP state for L2C
Initialize DRRIP state for LLC
BTB has LRU replacement policy
ITLB has LRU replacement policy
DTLB has LRU replacement policy
STLB has LRU replacement policy
L1I has LRU replacement policy
History Sets: 8
History Ways: 16
BERTI Size: 16
BERTI Stride Size: 8
L1D has LRU replacement policy
Initialize SRRIP state for L2C
Initialize DRRIP state for LLC
UNIQUE_ASID[0] = €
UNIQUE_ASID[1] = 
Heartbeat CPU 2 instructions: 10000001 cycles: 3345649 heartbeat IPC: 2.98896 cumulative IPC: 2.98896 (Simulation time: 0 hr 1 min 55 sec) 
Heartbeat CPU 0 instructions: 10000002 cycles: 3347068 heartbeat IPC: 2.98769 cumulative IPC: 2.98769 (Simulation time: 0 hr 1 min 55 sec) 
Heartbeat CPU 3 instructions: 10000003 cycles: 3379116 heartbeat IPC: 2.95935 cumulative IPC: 2.95935 (Simulation time: 0 hr 1 min 57 sec) 
Heartbeat CPU 1 instructions: 10000002 cycles: 3384258 heartbeat IPC: 2.95486 cumulative IPC: 2.95486 (Simulation time: 0 hr 1 min 57 sec) 
Heartbeat CPU 2 instructions: 20000003 cycles: 6708095 heartbeat IPC: 2.97403 cumulative IPC: 2.98147 (Simulation time: 0 hr 3 min 48 sec) 
Heartbeat CPU 0 instructions: 20000000 cycles: 6720927 heartbeat IPC: 2.96396 cumulative IPC: 2.97578 (Simulation time: 0 hr 3 min 48 sec) 
Heartbeat CPU 3 instructions: 20000001 cycles: 6753564 heartbeat IPC: 2.96345 cumulative IPC: 2.9614 (Simulation time: 0 hr 3 min 50 sec) 
Heartbeat CPU 1 instructions: 20000001 cycles: 6757799 heartbeat IPC: 2.96424 cumulative IPC: 2.95954 (Simulation time: 0 hr 3 min 50 sec) 
Heartbeat CPU 0 instructions: 30000003 cycles: 10068743 heartbeat IPC: 2.98702 cumulative IPC: 2.97952 (Simulation time: 0 hr 5 min 44 sec) 
Heartbeat CPU 2 instructions: 30000003 cycles: 10084232 heartbeat IPC: 2.96197 cumulative IPC: 2.97494 (Simulation time: 0 hr 5 min 45 sec) 
Heartbeat CPU 3 instructions: 30000000 cycles: 10119392 heartbeat IPC: 2.97104 cumulative IPC: 2.96461 (Simulation time: 0 hr 5 min 46 sec) 
Heartbeat CPU 1 instructions: 30000001 cycles: 10130594 heartbeat IPC: 2.9649 cumulative IPC: 2.96133 (Simulation time: 0 hr 5 min 46 sec) 
Heartbeat CPU 0 instructions: 40000000 cycles: 13459006 heartbeat IPC: 2.94962 cumulative IPC: 2.97199 (Simulation time: 0 hr 7 min 39 sec) 
Heartbeat CPU 3 instructions: 40000001 cycles: 13500043 heartbeat IPC: 2.95801 cumulative IPC: 2.96295 (Simulation time: 0 hr 7 min 41 sec) 
Heartbeat CPU 1 instructions: 40000000 cycles: 13530066 heartbeat IPC: 2.94163 cumulative IPC: 2.95638 (Simulation time: 0 hr 7 min 42 sec) 
Heartbeat CPU 2 instructions: 40000001 cycles: 13548083 heartbeat IPC: 2.88696 cumulative IPC: 2.95245 (Simulation time: 0 hr 7 min 42 sec) 
Heartbeat CPU 0 instructions: 50000001 cycles: 16849989 heartbeat IPC: 2.949 cumulative IPC: 2.96736 (Simulation time: 0 hr 9 min 9 sec) 
Heartbeat CPU 3 instructions: 50000000 cycles: 16898272 heartbeat IPC: 2.94271 cumulative IPC: 2.95888 (Simulation time: 0 hr 9 min 10 sec) 
Heartbeat CPU 1 instructions: 50000000 cycles: 16926232 heartbeat IPC: 2.9445 cumulative IPC: 2.95399 (Simulation time: 0 hr 9 min 10 sec) 
Heartbeat CPU 2 instructions: 50000003 cycles: 16997626 heartbeat IPC: 2.89894 cumulative IPC: 2.94159 (Simulation time: 0 hr 9 min 12 sec) 

Warmup complete CPU 0 instructions: 50422549 cycles: 16997626 (Simulation time: 0 hr 9 min 12 sec) 
Warmup complete CPU 1 instructions: 50205330 cycles: 16997626 (Simulation time: 0 hr 9 min 12 sec) 
Warmup complete CPU 2 instructions: 50000003 cycles: 16997626 (Simulation time: 0 hr 9 min 12 sec) 
Warmup complete CPU 3 instructions: 50281720 cycles: 16997625 (Simulation time: 0 hr 9 min 12 sec) 

Heartbeat CPU 0 instructions: 60000001 cycles: 31286928 heartbeat IPC: 0.692668 cumulative IPC: 0.670253 (Simulation time: 0 hr 11 min 42 sec) 
Heartbeat CPU 3 instructions: 60000003 cycles: 31449759 heartbeat IPC: 0.687215 cumulative IPC: 0.672446 (Simulation time: 0 hr 11 min 43 sec) 
Heartbeat CPU 1 instructions: 60000002 cycles: 31651640 heartbeat IPC: 0.679098 cumulative IPC: 0.668395 (Simulation time: 0 hr 11 min 46 sec) 
Heartbeat CPU 2 instructions: 60000000 cycles: 32748737 heartbeat IPC: 0.634876 cumulative IPC: 0.634876 (Simulation time: 0 hr 12 min 4 sec) 
Heartbeat CPU 0 instructions: 70000003 cycles: 45631120 heartbeat IPC: 0.697146 cumulative IPC: 0.683726 (Simulation time: 0 hr 14 min 53 sec) 
Heartbeat CPU 3 instructions: 70000000 cycles: 46729347 heartbeat IPC: 0.654468 cumulative IPC: 0.663207 (Simulation time: 0 hr 15 min 6 sec) 
Heartbeat CPU 1 instructions: 70000001 cycles: 47163138 heartbeat IPC: 0.644683 cumulative IPC: 0.656202 (Simulation time: 0 hr 15 min 11 sec) 
Heartbeat CPU 2 instructions: 70000001 cycles: 47740055 heartbeat IPC: 0.667053 cumulative IPC: 0.650567 (Simulation time: 0 hr 15 min 19 sec) 
Heartbeat CPU 0 instructions: 80000003 cycles: 60475769 heartbeat IPC: 0.673643 cumulative IPC: 0.680283 (Simulation time: 0 hr 18 min 22 sec) 
Heartbeat CPU 3 instructions: 80000002 cycles: 61594854 heartbeat IPC: 0.672698 cumulative IPC: 0.666371 (Simulation time: 0 hr 18 min 36 sec) 
Heartbeat CPU 1 instructions: 80000001 cycles: 62208918 heartbeat IPC: 0.664638 cumulative IPC: 0.65901 (Simulation time: 0 hr 18 min 44 sec) 
Heartbeat CPU 2 instructions: 80000002 cycles: 63401088 heartbeat IPC: 0.638528 cumulative IPC: 0.646503 (Simulation time: 0 hr 18 min 58 sec) 
Heartbeat CPU 3 instructions: 90000000 cycles: 76967607 heartbeat IPC: 0.650501 cumulative IPC: 0.662303 (Simulation time: 0 hr 21 min 44 sec) 
Heartbeat CPU 0 instructions: 90000000 cycles: 77522519 heartbeat IPC: 0.586622 cumulative IPC: 0.653904 (Simulation time: 0 hr 21 min 50 sec) 
Heartbeat CPU 1 instructions: 90000000 cycles: 78038176 heartbeat IPC: 0.631741 cumulative IPC: 0.651938 (Simulation time: 0 hr 21 min 55 sec) 
Heartbeat CPU 2 instructions: 90000002 cycles: 81102027 heartbeat IPC: 0.564942 cumulative IPC: 0.623982 (Simulation time: 0 hr 22 min 26 sec) 
Heartbeat CPU 3 instructions: 100000002 cycles: 91742656 heartbeat IPC: 0.676817 cumulative IPC: 0.665172 (Simulation time: 0 hr 24 min 53 sec) 
Heartbeat CPU 0 instructions: 100000001 cycles: 92466632 heartbeat IPC: 0.66916 cumulative IPC: 0.656925 (Simulation time: 0 hr 25 min 4 sec) 
Heartbeat CPU 1 instructions: 100000002 cycles: 92821296 heartbeat IPC: 0.676447 cumulative IPC: 0.656717 (Simulation time: 0 hr 25 min 8 sec) 
Heartbeat CPU 2 instructions: 100000000 cycles: 93715486 heartbeat IPC: 0.792804 cumulative IPC: 0.651739 (Simulation time: 0 hr 25 min 23 sec) 
Heartbeat CPU 2 instructions: 110000000 cycles: 105999779 heartbeat IPC: 0.814048 cumulative IPC: 0.674141 (Simulation time: 0 hr 28 min 20 sec) 
Heartbeat CPU 0 instructions: 110000000 cycles: 106084590 heartbeat IPC: 0.734324 cumulative IPC: 0.668756 (Simulation time: 0 hr 28 min 21 sec) 
Heartbeat CPU 3 instructions: 110000000 cycles: 106309640 heartbeat IPC: 0.686484 cumulative IPC: 0.668648 (Simulation time: 0 hr 28 min 23 sec) 
Heartbeat CPU 1 instructions: 110000000 cycles: 107643826 heartbeat IPC: 0.674649 cumulative IPC: 0.659649 (Simulation time: 0 hr 28 min 37 sec) 
Heartbeat CPU 2 instructions: 120000001 cycles: 117268882 heartbeat IPC: 0.887382 cumulative IPC: 0.698106 (Simulation time: 0 hr 30 min 37 sec) 
Heartbeat CPU 3 instructions: 120000000 cycles: 119355549 heartbeat IPC: 0.766524 cumulative IPC: 0.681122 (Simulation time: 0 hr 31 min 12 sec) 
Heartbeat CPU 0 instructions: 120000003 cycles: 120559062 heartbeat IPC: 0.690872 cumulative IPC: 0.671847 (Simulation time: 0 hr 31 min 26 sec) 
Heartbeat CPU 1 instructions: 120000003 cycles: 120783017 heartbeat IPC: 0.761082 cumulative IPC: 0.67249 (Simulation time: 0 hr 31 min 28 sec) 
Heartbeat CPU 2 instructions: 130000003 cycles: 131178331 heartbeat IPC: 0.718936 cumulative IPC: 0.700644 (Simulation time: 0 hr 33 min 51 sec) 
Heartbeat CPU 3 instructions: 130000003 cycles: 134601463 heartbeat IPC: 0.655914 cumulative IPC: 0.677854 (Simulation time: 0 hr 34 min 38 sec) 
Heartbeat CPU 0 instructions: 130000000 cycles: 135772298 heartbeat IPC: 0.657322 cumulative IPC: 0.669987 (Simulation time: 0 hr 34 min 55 sec) 
Heartbeat CPU 1 instructions: 130000000 cycles: 136418405 heartbeat IPC: 0.639575 cumulative IPC: 0.668181 (Simulation time: 0 hr 35 min 3 sec) 
Heartbeat CPU 2 instructions: 140000003 cycles: 146766908 heartbeat IPC: 0.641495 cumulative IPC: 0.693539 (Simulation time: 0 hr 37 min 44 sec) 
Heartbeat CPU 3 instructions: 140000000 cycles: 149765917 heartbeat IPC: 0.659437 cumulative IPC: 0.675751 (Simulation time: 0 hr 38 min 24 sec) 
Heartbeat CPU 0 instructions: 140000002 cycles: 150523737 heartbeat IPC: 0.6779 cumulative IPC: 0.670861 (Simulation time: 0 hr 38 min 32 sec) 
Heartbeat CPU 1 instructions: 140000000 cycles: 150914005 heartbeat IPC: 0.689865 cumulative IPC: 0.670528 (Simulation time: 0 hr 38 min 38 sec) 
Heartbeat CPU 2 instructions: 150000000 cycles: 162144656 heartbeat IPC: 0.65029 cumulative IPC: 0.688957 (Simulation time: 0 hr 41 min 6 sec) 
Heartbeat CPU 3 instructions: 150000003 cycles: 164662203 heartbeat IPC: 0.671308 cumulative IPC: 0.675303 (Simulation time: 0 hr 41 min 44 sec) 
Heartbeat CPU 0 instructions: 150000002 cycles: 165365511 heartbeat IPC: 0.673774 cumulative IPC: 0.671152 (Simulation time: 0 hr 41 min 55 sec) 
Heartbeat CPU 1 instructions: 150000003 cycles: 165571197 heartbeat IPC: 0.682259 cumulative IPC: 0.671685 (Simulation time: 0 hr 41 min 58 sec) 
Heartbeat CPU 2 instructions: 160000001 cycles: 177789019 heartbeat IPC: 0.639208 cumulative IPC: 0.684116 (Simulation time: 0 hr 44 min 20 sec) 
Heartbeat CPU 3 instructions: 160000001 cycles: 179387504 heartbeat IPC: 0.679103 cumulative IPC: 0.675647 (Simulation time: 0 hr 44 min 45 sec) 
Heartbeat CPU 0 instructions: 160000000 cycles: 180150358 heartbeat IPC: 0.676368 cumulative IPC: 0.671625 (Simulation time: 0 hr 44 min 57 sec) 
Heartbeat CPU 1 instructions: 160000001 cycles: 180386070 heartbeat IPC: 0.674997 cumulative IPC: 0.671986 (Simulation time: 0 hr 45 min 0 sec) 
Heartbeat CPU 2 instructions: 170000002 cycles: 192649064 heartbeat IPC: 0.672946 cumulative IPC: 0.683171 (Simulation time: 0 hr 48 min 3 sec) 
Heartbeat CPU 0 instructions: 170000002 cycles: 194382535 heartbeat IPC: 0.702633 cumulative IPC: 0.674113 (Simulation time: 0 hr 48 min 29 sec) 
Heartbeat CPU 3 instructions: 170000001 cycles: 194572301 heartbeat IPC: 0.658553 cumulative IPC: 0.674186 (Simulation time: 0 hr 48 min 32 sec) 
Heartbeat CPU 1 instructions: 170000002 cycles: 195747208 heartbeat IPC: 0.650994 cumulative IPC: 0.670182 (Simulation time: 0 hr 48 min 50 sec) 
Heartbeat CPU 2 instructions: 180000001 cycles: 208159265 heartbeat IPC: 0.644737 cumulative IPC: 0.680053 (Simulation time: 0 hr 51 min 33 sec) 
Heartbeat CPU 0 instructions: 180000002 cycles: 209153863 heartbeat IPC: 0.676987 cumulative IPC: 0.674334 (Simulation time: 0 hr 51 min 48 sec) 
Heartbeat CPU 3 instructions: 180000000 cycles: 209278244 heartbeat IPC: 0.679997 cumulative IPC: 0.67463 (Simulation time: 0 hr 51 min 50 sec) 
Heartbeat CPU 1 instructions: 180000003 cycles: 210704042 heartbeat IPC: 0.668591 cumulative IPC: 0.670059 (Simulation time: 0 hr 52 min 9 sec) 
Heartbeat CPU 3 instructions: 190000001 cycles: 224472772 heartbeat IPC: 0.658132 cumulative IPC: 0.673422 (Simulation time: 0 hr 54 min 39 sec) 
Heartbeat CPU 2 instructions: 190000001 cycles: 225538444 heartbeat IPC: 0.575401 cumulative IPC: 0.671331 (Simulation time: 0 hr 54 min 51 sec) 
Heartbeat CPU 0 instructions: 190000000 cycles: 225883974 heartbeat IPC: 0.597725 cumulative IPC: 0.668198 (Simulation time: 0 hr 54 min 55 sec) 
Heartbeat CPU 1 instructions: 190000003 cycles: 226414614 heartbeat IPC: 0.636514 cumulative IPC: 0.667542 (Simulation time: 0 hr 55 min 0 sec) 
Heartbeat CPU 2 instructions: 200000003 cycles: 238269605 heartbeat IPC: 0.785474 cumulative IPC: 0.677899 (Simulation time: 0 hr 57 min 26 sec) 
Heartbeat CPU 3 instructions: 200000000 cycles: 239223124 heartbeat IPC: 0.67795 cumulative IPC: 0.673722 (Simulation time: 0 hr 57 min 42 sec) 
Heartbeat CPU 0 instructions: 200000001 cycles: 240707548 heartbeat IPC: 0.674601 cumulative IPC: 0.668622 (Simulation time: 0 hr 57 min 59 sec) 
Heartbeat CPU 1 instructions: 200000002 cycles: 241129343 heartbeat IPC: 0.679591 cumulative IPC: 0.668333 (Simulation time: 0 hr 58 min 6 sec) 
Heartbeat CPU 2 instructions: 210000003 cycles: 250417467 heartbeat IPC: 0.82319 cumulative IPC: 0.68546 (Simulation time: 1 hr 0 min 20 sec) 
Heartbeat CPU 3 instructions: 210000000 cycles: 253768704 heartbeat IPC: 0.687494 cumulative IPC: 0.674568 (Simulation time: 1 hr 1 min 2 sec) 
Heartbeat CPU 0 instructions: 210000001 cycles: 254285335 heartbeat IPC: 0.736497 cumulative IPC: 0.672506 (Simulation time: 1 hr 1 min 10 sec) 
Heartbeat CPU 1 instructions: 210000000 cycles: 255847277 heartbeat IPC: 0.679443 cumulative IPC: 0.669018 (Simulation time: 1 hr 1 min 36 sec) 
Heartbeat CPU 2 instructions: 220000000 cycles: 261740311 heartbeat IPC: 0.88317 cumulative IPC: 0.694607 (Simulation time: 1 hr 3 min 12 sec) 
Heartbeat CPU 3 instructions: 220000000 cycles: 266739983 heartbeat IPC: 0.770934 cumulative IPC: 0.679573 (Simulation time: 1 hr 4 min 17 sec) 
Heartbeat CPU 0 instructions: 220000000 cycles: 268785859 heartbeat IPC: 0.68963 cumulative IPC: 0.673492 (Simulation time: 1 hr 4 min 52 sec) 
Heartbeat CPU 1 instructions: 220000000 cycles: 268856253 heartbeat IPC: 0.7687 cumulative IPC: 0.674167 (Simulation time: 1 hr 4 min 54 sec) 
Heartbeat CPU 2 instructions: 230000003 cycles: 275428008 heartbeat IPC: 0.730583 cumulative IPC: 0.696513 (Simulation time: 1 hr 6 min 38 sec) 
Heartbeat CPU 3 instructions: 230000003 cycles: 282009010 heartbeat IPC: 0.654921 cumulative IPC: 0.678153 (Simulation time: 1 hr 8 min 18 sec) 
Heartbeat CPU 0 instructions: 230000001 cycles: 283951783 heartbeat IPC: 0.659373 cumulative IPC: 0.67269 (Simulation time: 1 hr 8 min 49 sec) 
Heartbeat CPU 1 instructions: 230000001 cycles: 284396795 heartbeat IPC: 0.643478 cumulative IPC: 0.672383 (Simulation time: 1 hr 8 min 56 sec) 
Heartbeat CPU 2 instructions: 240000001 cycles: 290941159 heartbeat IPC: 0.644614 cumulative IPC: 0.693574 (Simulation time: 1 hr 10 min 41 sec) 
Heartbeat CPU 3 instructions: 240000003 cycles: 297107234 heartbeat IPC: 0.66233 cumulative IPC: 0.6773 (Simulation time: 1 hr 12 min 15 sec) 
Heartbeat CPU 0 instructions: 240000000 cycles: 298590424 heartbeat IPC: 0.683123 cumulative IPC: 0.673233 (Simulation time: 1 hr 12 min 35 sec) 
Heartbeat CPU 1 instructions: 240000002 cycles: 298891207 heartbeat IPC: 0.689921 cumulative IPC: 0.673285 (Simulation time: 1 hr 12 min 38 sec) 
Heartbeat CPU 2 instructions: 250000003 cycles: 306233523 heartbeat IPC: 0.653921 cumulative IPC: 0.691477 (Simulation time: 1 hr 14 min 12 sec) 
Finished CPU 2 instructions: 200000000 cycles: 289235897 cumulative IPC: 0.691477 (Simulation time: 1 hr 14 min 12 sec) 
Heartbeat CPU 3 instructions: 250000002 cycles: 311991470 heartbeat IPC: 0.671852 cumulative IPC: 0.677025 (Simulation time: 1 hr 15 min 35 sec) 
Finished CPU 3 instructions: 200000000 cycles: 295437408 cumulative IPC: 0.676962 (Simulation time: 1 hr 15 min 39 sec) 
Heartbeat CPU 0 instructions: 250000002 cycles: 313379643 heartbeat IPC: 0.676168 cumulative IPC: 0.673379 (Simulation time: 1 hr 15 min 49 sec) 
Heartbeat CPU 1 instructions: 250000002 cycles: 313518412 heartbeat IPC: 0.683658 cumulative IPC: 0.673797 (Simulation time: 1 hr 15 min 51 sec) 
Finished CPU 1 instructions: 200000000 cycles: 296803226 cumulative IPC: 0.673847 (Simulation time: 1 hr 15 min 54 sec) 
Finished CPU 0 instructions: 200000002 cycles: 296998846 cumulative IPC: 0.673403 (Simulation time: 1 hr 15 min 56 sec) 

ChampSim completed all CPUs

Total Simulation Statistics (not including warmup)

CPU 0 cumulative IPC: 0.673403 instructions: 200000002 cycles: 296998846
ITLB TOTAL     ACCESS:   35495684  HIT:   29841053  MISS:    5654631  HIT %:    84.0695  MISS %:    15.9305   MPKI: 28.2732
ITLB LOAD      ACCESS:          0  HIT:          0  MISS:          0  HIT %:       -nan  MISS %:       -nan   MPKI: 0
ITLB RFO       ACCESS:          0  HIT:          0  MISS:          0  HIT %:       -nan  MISS %:       -nan   MPKI: 0
ITLB PREFETCH  ACCESS:          0  HIT:          0  MISS:          0  HIT %:       -nan  MISS %:       -nan   MPKI: 0
ITLB WRITEBACK ACCESS:          0  HIT:          0  MISS:          0  HIT %:       -nan  MISS %:       -nan   MPKI: 0
DTLB TOTAL     ACCESS:   24190421  HIT:   17223121  MISS:    6967300  HIT %:    71.1981  MISS %:    28.8019   MPKI: 34.8365
DTLB LOAD      ACCESS:          0  HIT:          0  MISS:          0  HIT %:       -nan  MISS %:       -nan   MPKI: 0
DTLB RFO       ACCESS:          0  HIT:          0  MISS:          0  HIT %:       -nan  MISS %:       -nan   MPKI: 0
DTLB PREFETCH  ACCESS:          0  HIT:          0  MISS:          0  HIT %:       -nan  MISS %:       -nan   MPKI: 0
DTLB WRITEBACK ACCESS:          0  HIT:          0  MISS:          0  HIT %:       -nan  MISS %:       -nan   MPKI: 0
STLB TOTAL     ACCESS:   13517551  HIT:    4301290  MISS:    9216261  HIT %:      31.82  MISS %:      68.18   MPKI: 46.0813
STLB LOAD      ACCESS:          0  HIT:          0  MISS:          0  HIT %:       -nan  MISS %:       -nan   MPKI: 0
STLB RFO       ACCESS:          0  HIT:          0  MISS:          0  HIT %:       -nan  MISS %:       -nan   MPKI: 0
STLB PREFETCH  ACCESS:          0  HIT:          0  MISS:          0  HIT %:       -nan  MISS %:       -nan   MPKI: 0
STLB WRITEBACK ACCESS:          0  HIT:          0  MISS:          0  HIT %:       -nan  MISS %:       -nan   MPKI: 0
L1D TOTAL     ACCESS:   37114029  HIT:   35087164  MISS:    2026865  HIT %:    94.5388  MISS %:    5.46118   MPKI: 10.1343
L1D LOAD      ACCESS:   19632331  HIT:   18426926  MISS:    1205405  HIT %:    93.8601  MISS %:     6.1399   MPKI: 6.02702
L1D RFO       ACCESS:   14936036  HIT:   14358144  MISS:     577892  HIT %:    96.1309  MISS %:    3.86911   MPKI: 2.88946
L1D PREFETCH  ACCESS:    2545662  HIT:    2302094  MISS:     243568  HIT %:     90.432  MISS %:    9.56796   MPKI: 1.21784
L1D WRITEBACK ACCESS:          0  HIT:          0  MISS:          0  HIT %:       -nan  MISS %:       -nan   MPKI: 0
L1I TOTAL     ACCESS:   41608359  HIT:   33936976  MISS:    7671383  HIT %:    81.5629  MISS %:    18.4371   MPKI: 38.3569
L1I LOAD      ACCESS:   41608359  HIT:   33936976  MISS:    7671383  HIT %:    81.5629  MISS %:    18.4371   MPKI: 38.3569
L1I RFO       ACCESS:          0  HIT:          0  MISS:          0  HIT %:       -nan  MISS %:       -nan   MPKI: 0
L1I PREFETCH  ACCESS:          0  HIT:          0  MISS:          0  HIT %:       -nan  MISS %:       -nan   MPKI: 0
L1I WRITEBACK ACCESS:          0  HIT:          0  MISS:          0  HIT %:       -nan  MISS %:       -nan   MPKI: 0
L2C TOTAL     ACCESS:   21258404  HIT:   19664136  MISS:    1594268  HIT %:    92.5005  MISS %:    7.49947   MPKI: 7.97134
L2C LOAD      ACCESS:    8831175  HIT:    8150537  MISS:     680638  HIT %:    92.2928  MISS %:    7.70722   MPKI: 3.40319
L2C RFO       ACCESS:     577837  HIT:     157362  MISS:     420475  HIT %:    27.2329  MISS %:    72.7671   MPKI: 2.10237
L2C PREFETCH  ACCESS:     815783  HIT:     469679  MISS:     346104  HIT %:     57.574  MISS %:     42.426   MPKI: 1.73052
L2C WRITEBACK ACCESS:     868151  HIT:     795854  MISS:      72297  HIT %:    91.6723  MISS %:     8.3277   MPKI: 0.361485
PSCL5 TOTAL     ACCESS:    9240658  HIT:    9240658  MISS:          0  HIT %:        100  MISS %:          0   MPKI: 0
PSCL5 LOAD      ACCESS:          0  HIT:          0  MISS:          0  HIT %:       -nan  MISS %:       -nan   MPKI: 0
PSCL5 RFO       ACCESS:          0  HIT:          0  MISS:          0  HIT %:       -nan  MISS %:       -nan   MPKI: 0
PSCL5 PREFETCH  ACCESS:          0  HIT:          0  MISS:          0  HIT %:       -nan  MISS %:       -nan   MPKI: 0
PSCL5 WRITEBACK ACCESS:          0  HIT:          0  MISS:          0  HIT %:       -nan  MISS %:       -nan   MPKI: 0
PSCL4 TOTAL     ACCESS:    9240658  HIT:    9240658  MISS:          0  HIT %:        100  MISS %:          0   MPKI: 0
PSCL4 LOAD      ACCESS:          0  HIT:          0  MISS:          0  HIT %:       -nan  MISS %:       -nan   MPKI: 0
PSCL4 RFO       ACCESS:          0  HIT:          0  MISS:          0  HIT %:       -nan  MISS %:       -nan   MPKI: 0
PSCL4 PREFETCH  ACCESS:          0  HIT:          0  MISS:          0  HIT %:       -nan  MISS %:       -nan   MPKI: 0
PSCL4 WRITEBACK ACCESS:          0  HIT:          0  MISS:          0  HIT %:       -nan  MISS %:       -nan   MPKI: 0
PSCL3 TOTAL     ACCESS:    9232737  HIT:    9231031  MISS:       1706  HIT %:    99.9815  MISS %:  0.0184777   MPKI: 0.00853
PSCL3 LOAD      ACCESS:          0  HIT:          0  MISS:          0  HIT %:       -nan  MISS %:       -nan   MPKI: 0
PSCL3 RFO       ACCESS:          0  HIT:          0  MISS:          0  HIT %:       -nan  MISS %:       -nan   MPKI: 0
PSCL3 PREFETCH  ACCESS:          0  HIT:          0  MISS:          0  HIT %:       -nan  MISS %:       -nan   MPKI: 0
PSCL3 WRITEBACK ACCESS:          0  HIT:          0  MISS:          0  HIT %:       -nan  MISS %:       -nan   MPKI: 0
PSCL2 TOTAL     ACCESS:    9240237  HIT:    8317050  MISS:     923187  HIT %:    90.0091  MISS %:    9.99095   MPKI: 4.61593
PSCL2 LOAD      ACCESS:          0  HIT:          0  MISS:          0  HIT %:       -nan  MISS %:       -nan   MPKI: 0
PSCL2 RFO       ACCESS:          0  HIT:          0  MISS:          0  HIT %:       -nan  MISS %:       -nan   MPKI: 0
PSCL2 PREFETCH  ACCESS:          0  HIT:          0  MISS:          0  HIT %:       -nan  MISS %:       -nan   MPKI: 0
PSCL2 WRITEBACK ACCESS:          0  HIT:          0  MISS:          0  HIT %:       -nan  MISS %:       -nan   MPKI: 0
LLC TOTAL     ACCESS:    2092232  HIT:    1258387  MISS:     833845  HIT %:    60.1457  MISS %:    39.8543   MPKI: 4.16922
LLC LOAD      ACCESS:     647899  HIT:     436562  MISS:     211337  HIT %:    67.3812  MISS %:    32.6188   MPKI: 1.05668
LLC RFO       ACCESS:     420458  HIT:     173477  MISS:     246981  HIT %:    41.2591  MISS %:    58.7409   MPKI: 1.2349
LLC PREFETCH  ACCESS:     378857  HIT:      33052  MISS:     345805  HIT %:    8.72414  MISS %:    91.2759   MPKI: 1.72902
LLC WRITEBACK ACCESS:     570264  HIT:     557869  MISS:      12395  HIT %:    97.8264  MISS %:    2.17355   MPKI: 0.061975

RAW hits: 1142418
Loads Generated: 36938072
Loads sent to L1D: 35795654
Stores Generated: 17272306
Stores sent to L1D: 17272306

CPU 1 cumulative IPC: 0.673858 instructions: 200135142 cycles: 296998846
ITLB TOTAL     ACCESS:   35759901  HIT:   30128100  MISS:    5631801  HIT %:    84.2511  MISS %:    15.7489   MPKI: 28.14
ITLB LOAD      ACCESS:          0  HIT:          0  MISS:          0  HIT %:       -nan  MISS %:       -nan   MPKI: 0
ITLB RFO       ACCESS:          0  HIT:          0  MISS:          0  HIT %:       -nan  MISS %:       -nan   MPKI: 0
ITLB PREFETCH  ACCESS:          0  HIT:          0  MISS:          0  HIT %:       -nan  MISS %:       -nan   MPKI: 0
ITLB WRITEBACK ACCESS:          0  HIT:          0  MISS:          0  HIT %:       -nan  MISS %:       -nan   MPKI: 0
DTLB TOTAL     ACCESS:   24286871  HIT:   17422851  MISS:    6864020  HIT %:    71.7377  MISS %:    28.2623   MPKI: 34.2969
DTLB LOAD      ACCESS:          0  HIT:          0  MISS:          0  HIT %:       -nan  MISS %:       -nan   MPKI: 0
DTLB RFO       ACCESS:          0  HIT:          0  MISS:          0  HIT %:       -nan  MISS %:       -nan   MPKI: 0
DTLB PREFETCH  ACCESS:          0  HIT:          0  MISS:          0  HIT %:       -nan  MISS %:       -nan   MPKI: 0
DTLB WRITEBACK ACCESS:          0  HIT:          0  MISS:          0  HIT %:       -nan  MISS %:       -nan   MPKI: 0
STLB TOTAL     ACCESS:   13324895  HIT:    4254021  MISS:    9070874  HIT %:    31.9254  MISS %:    68.0746   MPKI: 45.3237
STLB LOAD      ACCESS:          0  HIT:          0  MISS:          0  HIT %:       -nan  MISS %:       -nan   MPKI: 0
STLB RFO       ACCESS:          0  HIT:          0  MISS:          0  HIT %:       -nan  MISS %:       -nan   MPKI: 0
STLB PREFETCH  ACCESS:          0  HIT:          0  MISS:          0  HIT %:       -nan  MISS %:       -nan   MPKI: 0
STLB WRITEBACK ACCESS:          0  HIT:          0  MISS:          0  HIT %:       -nan  MISS %:       -nan   MPKI: 0
L1D TOTAL     ACCESS:   37315455  HIT:   35363995  MISS:    1951460  HIT %:    94.7704  MISS %:    5.22963   MPKI: 9.75071
L1D LOAD      ACCESS:   19755249  HIT:   18576331  MISS:    1178918  HIT %:    94.0324  MISS %:    5.96762   MPKI: 5.89061
L1D RFO       ACCESS:   15073294  HIT:   14517870  MISS:     555424  HIT %:    96.3152  MISS %:    3.68482   MPKI: 2.77524
L1D PREFETCH  ACCESS:    2486912  HIT:    2269794  MISS:     217118  HIT %:    91.2696  MISS %:    8.73043   MPKI: 1.08486
L1D WRITEBACK ACCESS:          0  HIT:          0  MISS:          0  HIT %:       -nan  MISS %:       -nan   MPKI: 0
L1I TOTAL     ACCESS:   41849335  HIT:   34001757  MISS:    7847578  HIT %:     81.248  MISS %:     18.752   MPKI: 39.2114
L1I LOAD      ACCESS:   41849335  HIT:   34001757  MISS:    7847578  HIT %:     81.248  MISS %:     18.752   MPKI: 39.2114
L1I RFO       ACCESS:          0  HIT:          0  MISS:          0  HIT %:       -nan  MISS %:       -nan   MPKI: 0
L1I PREFETCH  ACCESS:          0  HIT:          0  MISS:          0  HIT %:       -nan  MISS %:       -nan   MPKI: 0
L1I WRITEBACK ACCESS:          0  HIT:          0  MISS:          0  HIT %:       -nan  MISS %:       -nan   MPKI: 0
L2C TOTAL     ACCESS:   21149980  HIT:   19731164  MISS:    1418816  HIT %:    93.2916  MISS %:    6.70836   MPKI: 7.08929
L2C LOAD      ACCESS:    8986240  HIT:    8412440  MISS:     573800  HIT %:    93.6147  MISS %:    6.38532   MPKI: 2.86706
L2C RFO       ACCESS:     555362  HIT:     161675  MISS:     393687  HIT %:    29.1116  MISS %:    70.8884   MPKI: 1.96711
L2C PREFETCH  ACCESS:     714348  HIT:     400763  MISS:     313585  HIT %:    56.1019  MISS %:    43.8981   MPKI: 1.56687
L2C WRITEBACK ACCESS:     822825  HIT:     755522  MISS:      67303  HIT %:    91.8205  MISS %:     8.1795   MPKI: 0.336288
PSCL5 TOTAL     ACCESS:    9087416  HIT:    9087416  MISS:          0  HIT %:        100  MISS %:          0   MPKI: 0
PSCL5 LOAD      ACCESS:          0  HIT:          0  MISS:          0  HIT %:       -nan  MISS %:       -nan   MPKI: 0
PSCL5 RFO       ACCESS:          0  HIT:          0  MISS:          0  HIT %:       -nan  MISS %:       -nan   MPKI: 0
PSCL5 PREFETCH  ACCESS:          0  HIT:          0  MISS:          0  HIT %:       -nan  MISS %:       -nan   MPKI: 0
PSCL5 WRITEBACK ACCESS:          0  HIT:          0  MISS:          0  HIT %:       -nan  MISS %:       -nan   MPKI: 0
PSCL4 TOTAL     ACCESS:    9087312  HIT:    9087302  MISS:         10  HIT %:    99.9999  MISS %: 0.000110044   MPKI: 4.99662e-05
PSCL4 LOAD      ACCESS:          0  HIT:          0  MISS:          0  HIT %:       -nan  MISS %:       -nan   MPKI: 0
PSCL4 RFO       ACCESS:          0  HIT:          0  MISS:          0  HIT %:       -nan  MISS %:       -nan   MPKI: 0
PSCL4 PREFETCH  ACCESS:          0  HIT:          0  MISS:          0  HIT %:       -nan  MISS %:       -nan   MPKI: 0
PSCL4 WRITEBACK ACCESS:          0  HIT:          0  MISS:          0  HIT %:       -nan  MISS %:       -nan   MPKI: 0
PSCL3 TOTAL     ACCESS:    9083787  HIT:    9082757  MISS:       1030  HIT %:    99.9887  MISS %:  0.0113389   MPKI: 0.00514652
PSCL3 LOAD      ACCESS:          0  HIT:          0  MISS:          0  HIT %:       -nan  MISS %:       -nan   MPKI: 0
PSCL3 RFO       ACCESS:          0  HIT:          0  MISS:          0  HIT %:       -nan  MISS %:       -nan   MPKI: 0
PSCL3 PREFETCH  ACCESS:          0  HIT:          0  MISS:          0  HIT %:       -nan  MISS %:       -nan   MPKI: 0
PSCL3 WRITEBACK ACCESS:          0  HIT:          0  MISS:          0  HIT %:       -nan  MISS %:       -nan   MPKI: 0
PSCL2 TOTAL     ACCESS:    9086609  HIT:    8103652  MISS:     982957  HIT %:    89.1824  MISS %:    10.8176   MPKI: 4.91147
PSCL2 LOAD      ACCESS:          0  HIT:          0  MISS:          0  HIT %:       -nan  MISS %:       -nan   MPKI: 0
PSCL2 RFO       ACCESS:          0  HIT:          0  MISS:          0  HIT %:       -nan  MISS %:       -nan   MPKI: 0
PSCL2 PREFETCH  ACCESS:          0  HIT:          0  MISS:          0  HIT %:       -nan  MISS %:       -nan   MPKI: 0
PSCL2 WRITEBACK ACCESS:          0  HIT:          0  MISS:          0  HIT %:       -nan  MISS %:       -nan   MPKI: 0
LLC TOTAL     ACCESS:    1872123  HIT:    1075041  MISS:     797082  HIT %:    57.4236  MISS %:    42.5764   MPKI: 3.98272
LLC LOAD      ACCESS:     542627  HIT:     325741  MISS:     216886  HIT %:    60.0304  MISS %:    39.9696   MPKI: 1.0837
LLC RFO       ACCESS:     393678  HIT:     167530  MISS:     226148  HIT %:    42.5551  MISS %:    57.4449   MPKI: 1.12998
LLC PREFETCH  ACCESS:     344762  HIT:      22678  MISS:     322084  HIT %:    6.57787  MISS %:    93.4221   MPKI: 1.60933
LLC WRITEBACK ACCESS:     520615  HIT:     507184  MISS:      13431  HIT %:    97.4202  MISS %:    2.57983   MPKI: 0.0671097

RAW hits: 1179422
Loads Generated: 37053009
Loads sent to L1D: 35873584
Stores Generated: 17421954
Stores sent to L1D: 17421954

CPU 2 cumulative IPC: 0.689927 instructions: 204907587 cycles: 296998846
ITLB TOTAL     ACCESS:   35993588  HIT:   31303938  MISS:    4689650  HIT %:    86.9709  MISS %:    13.0291   MPKI: 22.8867
ITLB LOAD      ACCESS:          0  HIT:          0  MISS:          0  HIT %:       -nan  MISS %:       -nan   MPKI: 0
ITLB RFO       ACCESS:          0  HIT:          0  MISS:          0  HIT %:       -nan  MISS %:       -nan   MPKI: 0
ITLB PREFETCH  ACCESS:          0  HIT:          0  MISS:          0  HIT %:       -nan  MISS %:       -nan   MPKI: 0
ITLB WRITEBACK ACCESS:          0  HIT:          0  MISS:          0  HIT %:       -nan  MISS %:       -nan   MPKI: 0
DTLB TOTAL     ACCESS:   23536864  HIT:   16656493  MISS:    6880371  HIT %:    70.7677  MISS %:    29.2323   MPKI: 33.5779
DTLB LOAD      ACCESS:          0  HIT:          0  MISS:          0  HIT %:       -nan  MISS %:       -nan   MPKI: 0
DTLB RFO       ACCESS:          0  HIT:          0  MISS:          0  HIT %:       -nan  MISS %:       -nan   MPKI: 0
DTLB PREFETCH  ACCESS:          0  HIT:          0  MISS:          0  HIT %:       -nan  MISS %:       -nan   MPKI: 0
DTLB WRITEBACK ACCESS:          0  HIT:          0  MISS:          0  HIT %:       -nan  MISS %:       -nan   MPKI: 0
STLB TOTAL     ACCESS:   14398906  HIT:    5500721  MISS:    8898185  HIT %:    38.2024  MISS %:    61.7976   MPKI: 43.4254
STLB LOAD      ACCESS:          0  HIT:          0  MISS:          0  HIT %:       -nan  MISS %:       -nan   MPKI: 0
STLB RFO       ACCESS:          0  HIT:          0  MISS:          0  HIT %:       -nan  MISS %:       -nan   MPKI: 0
STLB PREFETCH  ACCESS:          0  HIT:          0  MISS:          0  HIT %:       -nan  MISS %:       -nan   MPKI: 0
STLB WRITEBACK ACCESS:          0  HIT:          0  MISS:          0  HIT %:       -nan  MISS %:       -nan   MPKI: 0
L1D TOTAL     ACCESS:   40909044  HIT:   38801711  MISS:    2107333  HIT %:    94.8487  MISS %:    5.15126   MPKI: 10.2843
L1D LOAD      ACCESS:   19813662  HIT:   18479885  MISS:    1333777  HIT %:    93.2684  MISS %:     6.7316   MPKI: 6.50916
L1D RFO       ACCESS:   12640023  HIT:   12225681  MISS:     414342  HIT %:     96.722  MISS %:    3.27802   MPKI: 2.02209
L1D PREFETCH  ACCESS:    8455359  HIT:    8096145  MISS:     359214  HIT %:    95.7516  MISS %:    4.24836   MPKI: 1.75305
L1D WRITEBACK ACCESS:          0  HIT:          0  MISS:          0  HIT %:       -nan  MISS %:       -nan   MPKI: 0
L1I TOTAL     ACCESS:   41052274  HIT:   35172336  MISS:    5879938  HIT %:    85.6769  MISS %:    14.3231   MPKI: 28.6956
L1I LOAD      ACCESS:   41052274  HIT:   35172336  MISS:    5879938  HIT %:    85.6769  MISS %:    14.3231   MPKI: 28.6956
L1I RFO       ACCESS:          0  HIT:          0  MISS:          0  HIT %:       -nan  MISS %:       -nan   MPKI: 0
L1I PREFETCH  ACCESS:          0  HIT:          0  MISS:          0  HIT %:       -nan  MISS %:       -nan   MPKI: 0
L1I WRITEBACK ACCESS:          0  HIT:          0  MISS:          0  HIT %:       -nan  MISS %:       -nan   MPKI: 0
L2C TOTAL     ACCESS:   19890186  HIT:   18521288  MISS:    1368898  HIT %:    93.1177  MISS %:    6.88228   MPKI: 6.68056
L2C LOAD      ACCESS:    7191949  HIT:    6652664  MISS:     539285  HIT %:    92.5015  MISS %:    7.49845   MPKI: 2.63184
L2C RFO       ACCESS:     414254  HIT:     201451  MISS:     212803  HIT %:    48.6298  MISS %:    51.3702   MPKI: 1.03853
L2C PREFETCH  ACCESS:    1368015  HIT:     867040  MISS:     500975  HIT %:    63.3794  MISS %:    36.6206   MPKI: 2.44488
L2C WRITEBACK ACCESS:     780957  HIT:     732221  MISS:      48736  HIT %:    93.7595  MISS %:    6.24055   MPKI: 0.237844
PSCL5 TOTAL     ACCESS:    8934117  HIT:    8934117  MISS:          0  HIT %:        100  MISS %:          0   MPKI: 0
PSCL5 LOAD      ACCESS:          0  HIT:          0  MISS:          0  HIT %:       -nan  MISS %:       -nan   MPKI: 0
PSCL5 RFO       ACCESS:          0  HIT:          0  MISS:          0  HIT %:       -nan  MISS %:       -nan   MPKI: 0
PSCL5 PREFETCH  ACCESS:          0  HIT:          0  MISS:          0  HIT %:       -nan  MISS %:       -nan   MPKI: 0
PSCL5 WRITEBACK ACCESS:          0  HIT:          0  MISS:          0  HIT %:       -nan  MISS %:       -nan   MPKI: 0
PSCL4 TOTAL     ACCESS:    8930431  HIT:    8930421  MISS:         10  HIT %:    99.9999  MISS %: 0.000111977   MPKI: 4.88025e-05
PSCL4 LOAD      ACCESS:          0  HIT:          0  MISS:          0  HIT %:       -nan  MISS %:       -nan   MPKI: 0
PSCL4 RFO       ACCESS:          0  HIT:          0  MISS:          0  HIT %:       -nan  MISS %:       -nan   MPKI: 0
PSCL4 PREFETCH  ACCESS:          0  HIT:          0  MISS:          0  HIT %:       -nan  MISS %:       -nan   MPKI: 0
PSCL4 WRITEBACK ACCESS:          0  HIT:          0  MISS:          0  HIT %:       -nan  MISS %:       -nan   MPKI: 0
PSCL3 TOTAL     ACCESS:    8932231  HIT:    8931521  MISS:        710  HIT %:    99.9921  MISS %: 0.00794874   MPKI: 0.00346498
PSCL3 LOAD      ACCESS:          0  HIT:          0  MISS:          0  HIT %:       -nan  MISS %:       -nan   MPKI: 0
PSCL3 RFO       ACCESS:          0  HIT:          0  MISS:          0  HIT %:       -nan  MISS %:       -nan   MPKI: 0
PSCL3 PREFETCH  ACCESS:          0  HIT:          0  MISS:          0  HIT %:       -nan  MISS %:       -nan   MPKI: 0
PSCL3 WRITEBACK ACCESS:          0  HIT:          0  MISS:          0  HIT %:       -nan  MISS %:       -nan   MPKI: 0
PSCL2 TOTAL     ACCESS:    8933927  HIT:    7733751  MISS:    1200176  HIT %:    86.5661  MISS %:    13.4339   MPKI: 5.85716
PSCL2 LOAD      ACCESS:          0  HIT:          0  MISS:          0  HIT %:       -nan  MISS %:       -nan   MPKI: 0
PSCL2 RFO       ACCESS:          0  HIT:          0  MISS:          0  HIT %:       -nan  MISS %:       -nan   MPKI: 0
PSCL2 PREFETCH  ACCESS:          0  HIT:          0  MISS:          0  HIT %:       -nan  MISS %:       -nan   MPKI: 0
PSCL2 WRITEBACK ACCESS:          0  HIT:          0  MISS:          0  HIT %:       -nan  MISS %:       -nan   MPKI: 0
LLC TOTAL     ACCESS:    1666156  HIT:     794224  MISS:     871932  HIT %:     47.668  MISS %:     52.332   MPKI: 4.25525
LLC LOAD      ACCESS:     514876  HIT:     328515  MISS:     186361  HIT %:    63.8047  MISS %:    36.1953   MPKI: 0.909488
LLC RFO       ACCESS:     212799  HIT:      69782  MISS:     143017  HIT %:    32.7924  MISS %:    67.2076   MPKI: 0.697959
LLC PREFETCH  ACCESS:     525381  HIT:      12689  MISS:     512692  HIT %:     2.4152  MISS %:    97.5848   MPKI: 2.50206
LLC WRITEBACK ACCESS:     346001  HIT:     334875  MISS:      11126  HIT %:    96.7844  MISS %:     3.2156   MPKI: 0.0542976

RAW hits: 679782
Loads Generated: 35855883
Loads sent to L1D: 35176101
Stores Generated: 14103757
Stores sent to L1D: 14103757

CPU 3 cumulative IPC: 0.677003 instructions: 201069236 cycles: 296998847
ITLB TOTAL     ACCESS:   35709183  HIT:   29981640  MISS:    5727543  HIT %:    83.9606  MISS %:    16.0394   MPKI: 28.4854
ITLB LOAD      ACCESS:          0  HIT:          0  MISS:          0  HIT %:       -nan  MISS %:       -nan   MPKI: 0
ITLB RFO       ACCESS:          0  HIT:          0  MISS:          0  HIT %:       -nan  MISS %:       -nan   MPKI: 0
ITLB PREFETCH  ACCESS:          0  HIT:          0  MISS:          0  HIT %:       -nan  MISS %:       -nan   MPKI: 0
ITLB WRITEBACK ACCESS:          0  HIT:          0  MISS:          0  HIT %:       -nan  MISS %:       -nan   MPKI: 0
DTLB TOTAL     ACCESS:   24312205  HIT:   17167480  MISS:    7144725  HIT %:    70.6126  MISS %:    29.3874   MPKI: 35.5337
DTLB LOAD      ACCESS:          0  HIT:          0  MISS:          0  HIT %:       -nan  MISS %:       -nan   MPKI: 0
DTLB RFO       ACCESS:          0  HIT:          0  MISS:          0  HIT %:       -nan  MISS %:       -nan   MPKI: 0
DTLB PREFETCH  ACCESS:          0  HIT:          0  MISS:          0  HIT %:       -nan  MISS %:       -nan   MPKI: 0
DTLB WRITEBACK ACCESS:          0  HIT:          0  MISS:          0  HIT %:       -nan  MISS %:       -nan   MPKI: 0
STLB TOTAL     ACCESS:   13729073  HIT:    4295887  MISS:    9433186  HIT %:    31.2904  MISS %:    68.7096   MPKI: 46.9151
STLB LOAD      ACCESS:          0  HIT:          0  MISS:          0  HIT %:       -nan  MISS %:       -nan   MPKI: 0
STLB RFO       ACCESS:          0  HIT:          0  MISS:          0  HIT %:       -nan  MISS %:       -nan   MPKI: 0
STLB PREFETCH  ACCESS:          0  HIT:          0  MISS:          0  HIT %:       -nan  MISS %:       -nan   MPKI: 0
STLB WRITEBACK ACCESS:          0  HIT:          0  MISS:          0  HIT %:       -nan  MISS %:       -nan   MPKI: 0
L1D TOTAL     ACCESS:   37132157  HIT:   35139313  MISS:    1992844  HIT %:    94.6331  MISS %:     5.3669   MPKI: 9.91123
L1D LOAD      ACCESS:   19751980  HIT:   18532182  MISS:    1219798  HIT %:    93.8244  MISS %:    6.17557   MPKI: 6.06656
L1D RFO       ACCESS:   15054159  HIT:   14509127  MISS:     545032  HIT %:    96.3795  MISS %:    3.62047   MPKI: 2.71067
L1D PREFETCH  ACCESS:    2326018  HIT:    2098004  MISS:     228014  HIT %:    90.1972  MISS %:    9.80276   MPKI: 1.13401
L1D WRITEBACK ACCESS:          0  HIT:          0  MISS:          0  HIT %:       -nan  MISS %:       -nan   MPKI: 0
L1I TOTAL     ACCESS:   41904996  HIT:   34162316  MISS:    7742680  HIT %:    81.5233  MISS %:    18.4767   MPKI: 38.5075
L1I LOAD      ACCESS:   41904996  HIT:   34162316  MISS:    7742680  HIT %:    81.5233  MISS %:    18.4767   MPKI: 38.5075
L1I RFO       ACCESS:          0  HIT:          0  MISS:          0  HIT %:       -nan  MISS %:       -nan   MPKI: 0
L1I PREFETCH  ACCESS:          0  HIT:          0  MISS:          0  HIT %:       -nan  MISS %:       -nan   MPKI: 0
L1I WRITEBACK ACCESS:          0  HIT:          0  MISS:          0  HIT %:       -nan  MISS %:       -nan   MPKI: 0
L2C TOTAL     ACCESS:   21507296  HIT:   19924901  MISS:    1582395  HIT %:    92.6425  MISS %:    7.35748   MPKI: 7.8699
L2C LOAD      ACCESS:    8920469  HIT:    8203465  MISS:     717004  HIT %:    91.9623  MISS %:    8.03774   MPKI: 3.56596
L2C RFO       ACCESS:     544976  HIT:     153462  MISS:     391514  HIT %:    28.1594  MISS %:    71.8406   MPKI: 1.94716
L2C PREFETCH  ACCESS:     789553  HIT:     458760  MISS:     330793  HIT %:    58.1038  MISS %:    41.8962   MPKI: 1.64517
L2C WRITEBACK ACCESS:     837763  HIT:     766219  MISS:      71544  HIT %:    91.4601  MISS %:    8.53989   MPKI: 0.355818
PSCL5 TOTAL     ACCESS:    9449564  HIT:    9449564  MISS:          0  HIT %:        100  MISS %:          0   MPKI: 0
PSCL5 LOAD      ACCESS:          0  HIT:          0  MISS:          0  HIT %:       -nan  MISS %:       -nan   MPKI: 0
PSCL5 RFO       ACCESS:          0  HIT:          0  MISS:          0  HIT %:       -nan  MISS %:       -nan   MPKI: 0
PSCL5 PREFETCH  ACCESS:          0  HIT:          0  MISS:          0  HIT %:       -nan  MISS %:       -nan   MPKI: 0
PSCL5 WRITEBACK ACCESS:          0  HIT:          0  MISS:          0  HIT %:       -nan  MISS %:       -nan   MPKI: 0
PSCL4 TOTAL     ACCESS:    9449564  HIT:    9449564  MISS:          0  HIT %:        100  MISS %:          0   MPKI: 0
PSCL4 LOAD      ACCESS:          0  HIT:          0  MISS:          0  HIT %:       -nan  MISS %:       -nan   MPKI: 0
PSCL4 RFO       ACCESS:          0  HIT:          0  MISS:          0  HIT %:       -nan  MISS %:       -nan   MPKI: 0
PSCL4 PREFETCH  ACCESS:          0  HIT:          0  MISS:          0  HIT %:       -nan  MISS %:       -nan   MPKI: 0
PSCL4 WRITEBACK ACCESS:          0  HIT:          0  MISS:          0  HIT %:       -nan  MISS %:       -nan   MPKI: 0
PSCL3 TOTAL     ACCESS:    9445175  HIT:    9443960  MISS:       1215  HIT %:    99.9871  MISS %:  0.0128637   MPKI: 0.00604269
PSCL3 LOAD      ACCESS:          0  HIT:          0  MISS:          0  HIT %:       -nan  MISS %:       -nan   MPKI: 0
PSCL3 RFO       ACCESS:          0  HIT:          0  MISS:          0  HIT %:       -nan  MISS %:       -nan   MPKI: 0
PSCL3 PREFETCH  ACCESS:          0  HIT:          0  MISS:          0  HIT %:       -nan  MISS %:       -nan   MPKI: 0
PSCL3 WRITEBACK ACCESS:          0  HIT:          0  MISS:          0  HIT %:       -nan  MISS %:       -nan   MPKI: 0
PSCL2 TOTAL     ACCESS:    9449392  HIT:    8485543  MISS:     963849  HIT %:    89.7999  MISS %:    10.2001   MPKI: 4.79362
PSCL2 LOAD      ACCESS:          0  HIT:          0  MISS:          0  HIT %:       -nan  MISS %:       -nan   MPKI: 0
PSCL2 RFO       ACCESS:          0  HIT:          0  MISS:          0  HIT %:       -nan  MISS %:       -nan   MPKI: 0
PSCL2 PREFETCH  ACCESS:          0  HIT:          0  MISS:          0  HIT %:       -nan  MISS %:       -nan   MPKI: 0
PSCL2 WRITEBACK ACCESS:          0  HIT:          0  MISS:          0  HIT %:       -nan  MISS %:       -nan   MPKI: 0
LLC TOTAL     ACCESS:    2068910  HIT:    1295855  MISS:     773055  HIT %:    62.6347  MISS %:    37.3653   MPKI: 3.84472
LLC LOAD      ACCESS:     685923  HIT:     485515  MISS:     200408  HIT %:    70.7827  MISS %:    29.2173   MPKI: 0.996711
LLC RFO       ACCESS:     391512  HIT:     175349  MISS:     216163  HIT %:    44.7876  MISS %:    55.2124   MPKI: 1.07507
LLC PREFETCH  ACCESS:     361876  HIT:      33952  MISS:     327924  HIT %:    9.38222  MISS %:    90.6178   MPKI: 1.6309
LLC WRITEBACK ACCESS:     558059  HIT:     545797  MISS:      12262  HIT %:    97.8027  MISS %:    2.19726   MPKI: 0.060984

RAW hits: 1135606
Loads Generated: 37085934
Loads sent to L1D: 35950328
Stores Generated: 17287092
Stores sent to L1D: 17287098

Region of Interest Statistics

CPU 0 cumulative IPC: 0.673403 instructions: 200000002 cycles: 296998846
ITLB TOTAL     ACCESS:   35495684  HIT:   29841053  MISS:    5654631  HIT %:    84.0695  MISS %:    15.9305   MPKI: 28.2732
ITLB LOAD TRANSLATION ACCESS:   35495684  HIT:   29841053  MISS:    5654631  HIT %:    84.0695  MISS %:    15.9305   MPKI: 28.2732
ITLB PREFETCH  REQUESTED:          0  ISSUED:          0  USEFUL:          0  USELESS:          0
ITLB USEFUL LOAD PREFETCHES:          0 PREFETCH ISSUED TO LOWER LEVEL:          0  ACCURACY: -nan
ITLB TIMELY PREFETCHES:          0 LATE PREFETCHES: 0 DROPPED PREFETCHES: 0
ITLB PREFETCHES SAME FILL-ORIGIN LEVEL: 0 DIFFERENT FILL-ORIGIN LEVEL: 0
ITLB AVERAGE MISS LATENCY: 29.6265 cycles
ITLB RQ	ACCESS:   44143962	FORWARD:          0	MERGED:    6319504	TO_CACHE:   37824458

DTLB TOTAL     ACCESS:   24190421  HIT:   17223121  MISS:    6967300  HIT %:    71.1981  MISS %:    28.8019   MPKI: 34.8365
DTLB LOAD TRANSLATION ACCESS:   24190421  HIT:   17223121  MISS:    6967300  HIT %:    71.1981  MISS %:    28.8019   MPKI: 34.8365
DTLB PREFETCH  REQUESTED:          0  ISSUED:          0  USEFUL:          0  USELESS:          0
DTLB USEFUL LOAD PREFETCHES:          0 PREFETCH ISSUED TO LOWER LEVEL:          0  ACCURACY: -nan
DTLB TIMELY PREFETCHES:          0 LATE PREFETCHES: 0 DROPPED PREFETCHES: 0
DTLB PREFETCHES SAME FILL-ORIGIN LEVEL: 0 DIFFERENT FILL-ORIGIN LEVEL: 0
DTLB AVERAGE MISS LATENCY: 31.7067 cycles
DTLB RQ	ACCESS:   36906258	FORWARD:          0	MERGED:   11180794	TO_CACHE:   25725464

STLB TOTAL     ACCESS:   13517551  HIT:    4301290  MISS:    9216261  HIT %:      31.82  MISS %:      68.18   MPKI: 46.0813
STLB LOAD TRANSLATION ACCESS:   12621931  HIT:    3420785  MISS:    9201146  HIT %:    27.1019  MISS %:    72.8981   MPKI: 46.0057
STLB TRANSLATION FROM L1D PREFETCHER ACCESS:     895620  HIT:     880505  MISS:      15115  HIT %:    98.3123  MISS %:    1.68766   MPKI: 0.075575
STLB PREFETCH  REQUESTED:          0  ISSUED:          0  USEFUL:      12618  USELESS:       2497
STLB USEFUL LOAD PREFETCHES:      12618 PREFETCH ISSUED TO LOWER LEVEL:          0  ACCURACY: inf
STLB TIMELY PREFETCHES:      12618 LATE PREFETCHES: 0 DROPPED PREFETCHES: 24397
STLB PREFETCHES SAME FILL-ORIGIN LEVEL: 0 DIFFERENT FILL-ORIGIN LEVEL: 0
STLB AVERAGE MISS LATENCY: 29.7904 cycles
STLB RQ	ACCESS:   16958691	FORWARD:          0	MERGED:    3396892	TO_CACHE:   13561799

STLB Hit, L1D data hit: 0
STLB Hit, L2C data hit: 0
STLB Hit, LLC data hit: 0
STLB Hit, LLC data miss: 0
STLB STLB hints to L2: 0
L1D TOTAL     ACCESS:   37114029  HIT:   35087164  MISS:    2026865  HIT %:    94.5388  MISS %:    5.46118   MPKI: 10.1343
L1D LOAD      ACCESS:   19632331  HIT:   18426926  MISS:    1205405  HIT %:    93.8601  MISS %:     6.1399   MPKI: 6.02702
L1D RFO       ACCESS:   14936036  HIT:   14358144  MISS:     577892  HIT %:    96.1309  MISS %:    3.86911   MPKI: 2.88946
L1D PREFETCH  ACCESS:    2545662  HIT:    2302094  MISS:     243568  HIT %:     90.432  MISS %:    9.56796   MPKI: 1.21784
L1D PREFETCH  REQUESTED:   10478274  ISSUED:   10352285  USEFUL:     220912  USELESS:      22664
L1D USEFUL LOAD PREFETCHES:     220912 PREFETCH ISSUED TO LOWER LEVEL:    1401481  ACCURACY: 15.7628
L1D TIMELY PREFETCHES:     220912 LATE PREFETCHES: 45582 DROPPED PREFETCHES: 83431
L1D PREFETCHES SAME FILL-ORIGIN LEVEL: 289151 DIFFERENT FILL-ORIGIN LEVEL: 1112330
L1D AVERAGE MISS LATENCY: 99.4008 cycles
L1D RQ	ACCESS:   35795654	FORWARD:          0	MERGED:   15909529	TO_CACHE:   19773632
L1D WQ	ACCESS:   17272306	FORWARD:     112567	MERGED:     139680	TO_CACHE:   17132626
L1D PQ	ACCESS:    6015525	FORWARD:          0	MERGED:    1678691	TO_CACHE:    4336760

L1D UNIQUE REGIONS ACCESSED: 0
L1D REGIONS CONFLICTS: 0
L1D Cross Page Prefetch Requests: 955642
L1D Same Page Prefetch Requests: 8177455
L1D ROI Sum of L1D PQ occupancy: 80343377
L1D PREFETCHES PUSHED FROM L2C: 0
L1I TOTAL     ACCESS:   41608359  HIT:   33936976  MISS:    7671383  HIT %:    81.5629  MISS %:    18.4371   MPKI: 38.3569
L1I LOAD      ACCESS:   41608359  HIT:   33936976  MISS:    7671383  HIT %:    81.5629  MISS %:    18.4371   MPKI: 38.3569
L1I PREFETCH  REQUESTED:          0  ISSUED:          0  USEFUL:          0  USELESS:          0
L1I USEFUL LOAD PREFETCHES:          0 PREFETCH ISSUED TO LOWER LEVEL:          0  ACCURACY: -nan
L1I TIMELY PREFETCHES:          0 LATE PREFETCHES: 0 DROPPED PREFETCHES: 0
L1I PREFETCHES SAME FILL-ORIGIN LEVEL: 0 DIFFERENT FILL-ORIGIN LEVEL: 0
L1I AVERAGE MISS LATENCY: 13.2213 cycles
L1I RQ	ACCESS:   77952393	FORWARD:          0	MERGED:   33808431	TO_CACHE:   44143962

BTB BRANCH_DIRECT_JUMP	ACCESS:          0  HIT:          0  MISS:          0
BTB BRANCH_INDIRECT	ACCESS:          0  HIT:          0  MISS:          0
BTB BRANCH_CONDITIONAL	ACCESS:          0  HIT:          0  MISS:          0
BTB BRANCH_DIRECT_CALL	ACCESS:          0  HIT:          0  MISS:          0
BTB BRANCH_INDIRECT_CALL	ACCESS:          0  HIT:          0  MISS:          0
BTB BRANCH_RETURN	ACCESS:          0  HIT:          0  MISS:          0
BTB BRANCH_OTHER ACCESS:          0  HIT:          0  MISS:          0

L2C TOTAL     ACCESS:   21258404  HIT:   19664136  MISS:    1594268  HIT %:    92.5005  MISS %:    7.49947   MPKI: 7.97134
L2C LOAD      ACCESS:    8831175  HIT:    8150537  MISS:     680638  HIT %:    92.2928  MISS %:    7.70722   MPKI: 3.40319
L2C DATA LOAD MPKI: 2.68888
L2C INSTRUCTION LOAD MPKI: 0.714305
L2C RFO       ACCESS:     577837  HIT:     157362  MISS:     420475  HIT %:    27.2329  MISS %:    72.7671   MPKI: 2.10237
L2C PREFETCH  ACCESS:     815783  HIT:     469679  MISS:     346104  HIT %:     57.574  MISS %:     42.426   MPKI: 1.73052
L2C DATA PREFETCH MPKI: 1.73052
L2C INSTRUCTION PREFETCH MPKI: 0
L2C WRITEBACK ACCESS:     868151  HIT:     795854  MISS:      72297  HIT %:    91.6723  MISS %:     8.3277   MPKI: 0.361485
L2C LOAD TRANSLATION ACCESS:   10125486  HIT:   10051655  MISS:      73831  HIT %:    99.2708  MISS %:    0.72916   MPKI: 0.369155
L2C TRANSLATION FROM L1D PREFETCHER ACCESS:      39972  HIT:      39049  MISS:        923  HIT %:    97.6909  MISS %:    2.30912   MPKI: 0.004615
L2C PREFETCH  REQUESTED:          0  ISSUED:          0  USEFUL:      99799  USELESS:     247816
L2C USEFUL LOAD PREFETCHES:      99799 PREFETCH ISSUED TO LOWER LEVEL:     378857  ACCURACY: 26.3421
L2C TIMELY PREFETCHES:      99799 LATE PREFETCHES: 32753 DROPPED PREFETCHES: 0
L2C PREFETCHES SAME FILL-ORIGIN LEVEL: 266899 DIFFERENT FILL-ORIGIN LEVEL: 0
L2C AVERAGE MISS LATENCY: 164.573 cycles
L2C RQ	ACCESS:   19574555	FORWARD:          0	MERGED:          2	TO_CACHE:   19574480
L2C WQ	ACCESS:     868151	FORWARD:         73	MERGED:          0	TO_CACHE:     868151
L2C PQ	ACCESS:    1358298	FORWARD:          0	MERGED:      18882	TO_CACHE:    1339416

L2C Instructions Evicting Data 115924
L2C Translations Evicting Data 63589
L2C Data Evicting Data 1137214
L2C Instructions Evicting Instructions 19420
L2C Translations Evicting Instructions 7623
L2C Data Evicting Instructions 107433
L2C Instructions Evicting Translations 7515
L2C Translations Evicting Translations 3542
L2C Data Evicting Translations 59703
L2C Dense regions hint from L2: 0
PSCL5 TOTAL     ACCESS:    9240658  HIT:    9240658  MISS:          0  HIT %:        100  MISS %:          0   MPKI: 0
PSCL5 LOAD TRANSLATION ACCESS:    9201146  HIT:    9201146  MISS:          0  HIT %:        100  MISS %:          0   MPKI: 0
PSCL5 TRANSLATION FROM L1D PREFETCHER ACCESS:      39512  HIT:      39512  MISS:          0  HIT %:        100  MISS %:          0   MPKI: 0
PSCL5 PREFETCH  REQUESTED:          0  ISSUED:          0  USEFUL:          0  USELESS:          0
PSCL5 USEFUL LOAD PREFETCHES:          0 PREFETCH ISSUED TO LOWER LEVEL:          0  ACCURACY: -nan
PSCL5 TIMELY PREFETCHES:          0 LATE PREFETCHES: 0 DROPPED PREFETCHES: 0
PSCL5 PREFETCHES SAME FILL-ORIGIN LEVEL: 0 DIFFERENT FILL-ORIGIN LEVEL: 0

PSCL4 TOTAL     ACCESS:    9240658  HIT:    9240658  MISS:          0  HIT %:        100  MISS %:          0   MPKI: 0
PSCL4 LOAD TRANSLATION ACCESS:    9201146  HIT:    9201146  MISS:          0  HIT %:        100  MISS %:          0   MPKI: 0
PSCL4 TRANSLATION FROM L1D PREFETCHER ACCESS:      39512  HIT:      39512  MISS:          0  HIT %:        100  MISS %:          0   MPKI: 0
PSCL4 PREFETCH  REQUESTED:          0  ISSUED:          0  USEFUL:          0  USELESS:          0
PSCL4 USEFUL LOAD PREFETCHES:          0 PREFETCH ISSUED TO LOWER LEVEL:          0  ACCURACY: -nan
PSCL4 TIMELY PREFETCHES:          0 LATE PREFETCHES: 0 DROPPED PREFETCHES: 0
PSCL4 PREFETCHES SAME FILL-ORIGIN LEVEL: 0 DIFFERENT FILL-ORIGIN LEVEL: 0

PSCL3 TOTAL     ACCESS:    9232737  HIT:    9231031  MISS:       1706  HIT %:    99.9815  MISS %:  0.0184777   MPKI: 0.00853
PSCL3 LOAD TRANSLATION ACCESS:    9193277  HIT:    9191571  MISS:       1706  HIT %:    99.9814  MISS %:   0.018557   MPKI: 0.00853
PSCL3 TRANSLATION FROM L1D PREFETCHER ACCESS:      39460  HIT:      39460  MISS:          0  HIT %:        100  MISS %:          0   MPKI: 0
PSCL3 PREFETCH  REQUESTED:          0  ISSUED:          0  USEFUL:          0  USELESS:          0
PSCL3 USEFUL LOAD PREFETCHES:          0 PREFETCH ISSUED TO LOWER LEVEL:          0  ACCURACY: -nan
PSCL3 TIMELY PREFETCHES:          0 LATE PREFETCHES: 0 DROPPED PREFETCHES: 0
PSCL3 PREFETCHES SAME FILL-ORIGIN LEVEL: 0 DIFFERENT FILL-ORIGIN LEVEL: 0

PSCL2 TOTAL     ACCESS:    9240237  HIT:    8317050  MISS:     923187  HIT %:    90.0091  MISS %:    9.99095   MPKI: 4.61593
PSCL2 LOAD TRANSLATION ACCESS:    9201589  HIT:    8278402  MISS:     923187  HIT %:    89.9671  MISS %:    10.0329   MPKI: 4.61593
PSCL2 TRANSLATION FROM L1D PREFETCHER ACCESS:      38648  HIT:      38648  MISS:          0  HIT %:        100  MISS %:          0   MPKI: 0
PSCL2 PREFETCH  REQUESTED:          0  ISSUED:          0  USEFUL:          0  USELESS:          0
PSCL2 USEFUL LOAD PREFETCHES:          0 PREFETCH ISSUED TO LOWER LEVEL:          0  ACCURACY: -nan
PSCL2 TIMELY PREFETCHES:          0 LATE PREFETCHES: 0 DROPPED PREFETCHES: 0
PSCL2 PREFETCHES SAME FILL-ORIGIN LEVEL: 0 DIFFERENT FILL-ORIGIN LEVEL: 0

LLC TOTAL     ACCESS:    2092232  HIT:    1258387  MISS:     833845  HIT %:    60.1457  MISS %:    39.8543   MPKI: 4.16922
LLC LOAD      ACCESS:     647899  HIT:     436562  MISS:     211337  HIT %:    67.3812  MISS %:    32.6188   MPKI: 1.05668
LLC RFO       ACCESS:     420458  HIT:     173477  MISS:     246981  HIT %:    41.2591  MISS %:    58.7409   MPKI: 1.2349
LLC PREFETCH  ACCESS:     378857  HIT:      33052  MISS:     345805  HIT %:    8.72414  MISS %:    91.2759   MPKI: 1.72902
LLC WRITEBACK ACCESS:     570264  HIT:     557869  MISS:      12395  HIT %:    97.8264  MISS %:    2.17355   MPKI: 0.061975
LLC LOAD TRANSLATION ACCESS:      73831  HIT:      57279  MISS:      16552  HIT %:    77.5812  MISS %:    22.4188   MPKI: 0.08276
LLC TRANSLATION FROM L1D PREFETCHER ACCESS:        923  HIT:        148  MISS:        775  HIT %:    16.0347  MISS %:    83.9653   MPKI: 0.003875
LLC PREFETCH  REQUESTED:          0  ISSUED:          0  USEFUL:      11116  USELESS:    1501720
LLC USEFUL LOAD PREFETCHES:      11116 PREFETCH ISSUED TO LOWER LEVEL:    1515717  ACCURACY: 0.733382
LLC TIMELY PREFETCHES:      11116 LATE PREFETCHES: 0 DROPPED PREFETCHES: 0
LLC PREFETCHES SAME FILL-ORIGIN LEVEL: 0 DIFFERENT FILL-ORIGIN LEVEL: 0
LLC AVERAGE MISS LATENCY: 991.483 cycles
LLC RQ	ACCESS:    4093620	FORWARD:          0	MERGED:          0	TO_CACHE:    4093605
LLC WQ	ACCESS:    1994940	FORWARD:         15	MERGED:          1	TO_CACHE:    1994939
LLC PQ	ACCESS:    1610876	FORWARD:          0	MERGED:          0	TO_CACHE:    1610876

LLC Dense regions hint to LLC: 0

RAW hits: 1142418
Loads Generated: 36938072
Loads sent to L1D: 35795654
Stores Generated: 17272306
Stores sent to L1D: 17272306
Major fault: 0 Minor fault: 14378
Allocated PAGES: 57634

CPU 1 cumulative IPC: 0.673847 instructions: 200000000 cycles: 296803226
ITLB TOTAL     ACCESS:   35735664  HIT:   30107883  MISS:    5627781  HIT %:    84.2516  MISS %:    15.7484   MPKI: 28.1389
ITLB LOAD TRANSLATION ACCESS:   35735664  HIT:   30107883  MISS:    5627781  HIT %:    84.2516  MISS %:    15.7484   MPKI: 28.1389
ITLB PREFETCH  REQUESTED:          0  ISSUED:          0  USEFUL:          0  USELESS:          0
ITLB USEFUL LOAD PREFETCHES:          0 PREFETCH ISSUED TO LOWER LEVEL:          0  ACCURACY: -nan
ITLB TIMELY PREFETCHES:          0 LATE PREFETCHES: 0 DROPPED PREFETCHES: 0
ITLB PREFETCHES SAME FILL-ORIGIN LEVEL: 0 DIFFERENT FILL-ORIGIN LEVEL: 0
ITLB AVERAGE MISS LATENCY: 29.3937 cycles
ITLB RQ	ACCESS:   44447374	FORWARD:          0	MERGED:    6382122	TO_CACHE:   38065252

DTLB TOTAL     ACCESS:   24270153  HIT:   17410764  MISS:    6859389  HIT %:    71.7373  MISS %:    28.2627   MPKI: 34.2969
DTLB LOAD TRANSLATION ACCESS:   24270153  HIT:   17410764  MISS:    6859389  HIT %:    71.7373  MISS %:    28.2627   MPKI: 34.2969
DTLB PREFETCH  REQUESTED:          0  ISSUED:          0  USEFUL:          0  USELESS:          0
DTLB USEFUL LOAD PREFETCHES:          0 PREFETCH ISSUED TO LOWER LEVEL:          0  ACCURACY: -nan
DTLB TIMELY PREFETCHES:          0 LATE PREFETCHES: 0 DROPPED PREFETCHES: 0
DTLB PREFETCHES SAME FILL-ORIGIN LEVEL: 0 DIFFERENT FILL-ORIGIN LEVEL: 0
DTLB AVERAGE MISS LATENCY: 31.5131 cycles
DTLB RQ	ACCESS:   37179915	FORWARD:          0	MERGED:   11324026	TO_CACHE:   25855889

STLB TOTAL     ACCESS:   13316114  HIT:    4251491  MISS:    9064623  HIT %:    31.9274  MISS %:    68.0726   MPKI: 45.3231
STLB LOAD TRANSLATION ACCESS:   12487170  HIT:    3437245  MISS:    9049925  HIT %:    27.5262  MISS %:    72.4738   MPKI: 45.2496
STLB TRANSLATION FROM L1D PREFETCHER ACCESS:     828944  HIT:     814246  MISS:      14698  HIT %:    98.2269  MISS %:     1.7731   MPKI: 0.07349
STLB PREFETCH  REQUESTED:          0  ISSUED:          0  USEFUL:      12187  USELESS:       2515
STLB USEFUL LOAD PREFETCHES:      12187 PREFETCH ISSUED TO LOWER LEVEL:          0  ACCURACY: inf
STLB TIMELY PREFETCHES:      12187 LATE PREFETCHES: 0 DROPPED PREFETCHES: 16542
STLB PREFETCHES SAME FILL-ORIGIN LEVEL: 0 DIFFERENT FILL-ORIGIN LEVEL: 0
STLB AVERAGE MISS LATENCY: 29.6589 cycles
STLB RQ	ACCESS:   16522795	FORWARD:          0	MERGED:    3164184	TO_CACHE:   13358611

STLB Hit, L1D data hit: 0
STLB Hit, L2C data hit: 0
STLB Hit, LLC data hit: 0
STLB Hit, LLC data miss: 0
STLB STLB hints to L2: 0
L1D TOTAL     ACCESS:   37291344  HIT:   35340783  MISS:    1950561  HIT %:    94.7694  MISS %:     5.2306   MPKI: 9.75281
L1D LOAD      ACCESS:   19742076  HIT:   18563706  MISS:    1178370  HIT %:    94.0312  MISS %:    5.96883   MPKI: 5.89185
L1D RFO       ACCESS:   15062431  HIT:   14507327  MISS:     555104  HIT %:    96.3146  MISS %:    3.68535   MPKI: 2.77552
L1D PREFETCH  ACCESS:    2486837  HIT:    2269750  MISS:     217087  HIT %:    91.2706  MISS %:    8.72944   MPKI: 1.08543
L1D PREFETCH  REQUESTED:    9671324  ISSUED:    9563992  USEFUL:     195321  USELESS:      21818
L1D USEFUL LOAD PREFETCHES:     195321 PREFETCH ISSUED TO LOWER LEVEL:    1209672  ACCURACY: 16.1466
L1D TIMELY PREFETCHES:     195321 LATE PREFETCHES: 40229 DROPPED PREFETCHES: 56086
L1D PREFETCHES SAME FILL-ORIGIN LEVEL: 257431 DIFFERENT FILL-ORIGIN LEVEL: 952241
L1D AVERAGE MISS LATENCY: 97.3382 cycles
L1D RQ	ACCESS:   35873584	FORWARD:          0	MERGED:   15866771	TO_CACHE:   19890849
L1D WQ	ACCESS:   17421954	FORWARD:     115965	MERGED:     132888	TO_CACHE:   17289066
L1D PQ	ACCESS:    5537018	FORWARD:          0	MERGED:    1510043	TO_CACHE:    4026974

L1D UNIQUE REGIONS ACCESSED: 0
L1D REGIONS CONFLICTS: 0
L1D Cross Page Prefetch Requests: 1012396
L1D Same Page Prefetch Requests: 8875809
L1D ROI Sum of L1D PQ occupancy: 71871418
L1D PREFETCHES PUSHED FROM L2C: 0
L1I TOTAL     ACCESS:   41820895  HIT:   33978936  MISS:    7841959  HIT %:    81.2487  MISS %:    18.7513   MPKI: 39.2098
L1I LOAD      ACCESS:   41820895  HIT:   33978936  MISS:    7841959  HIT %:    81.2487  MISS %:    18.7513   MPKI: 39.2098
L1I PREFETCH  REQUESTED:          0  ISSUED:          0  USEFUL:          0  USELESS:          0
L1I USEFUL LOAD PREFETCHES:          0 PREFETCH ISSUED TO LOWER LEVEL:          0  ACCURACY: -nan
L1I TIMELY PREFETCHES:          0 LATE PREFETCHES: 0 DROPPED PREFETCHES: 0
L1I PREFETCHES SAME FILL-ORIGIN LEVEL: 0 DIFFERENT FILL-ORIGIN LEVEL: 0
L1I AVERAGE MISS LATENCY: 13.0569 cycles
L1I RQ	ACCESS:   78597076	FORWARD:          0	MERGED:   34149702	TO_CACHE:   44447374

BTB BRANCH_DIRECT_JUMP	ACCESS:          0  HIT:          0  MISS:          0
BTB BRANCH_INDIRECT	ACCESS:          0  HIT:          0  MISS:          0
BTB BRANCH_CONDITIONAL	ACCESS:          0  HIT:          0  MISS:          0
BTB BRANCH_DIRECT_CALL	ACCESS:          0  HIT:          0  MISS:          0
BTB BRANCH_INDIRECT_CALL	ACCESS:          0  HIT:          0  MISS:          0
BTB BRANCH_RETURN	ACCESS:          0  HIT:          0  MISS:          0
BTB BRANCH_OTHER ACCESS:          0  HIT:          0  MISS:          0

L2C TOTAL     ACCESS:   21136117  HIT:   19718073  MISS:    1418044  HIT %:    93.2909  MISS %:     6.7091   MPKI: 7.09022
L2C LOAD      ACCESS:    8980086  HIT:    8406649  MISS:     573437  HIT %:    93.6143  MISS %:    6.38565   MPKI: 2.86719
L2C DATA LOAD MPKI: 2.25499
L2C INSTRUCTION LOAD MPKI: 0.6122
L2C RFO       ACCESS:     555042  HIT:     161589  MISS:     393453  HIT %:    29.1129  MISS %:    70.8871   MPKI: 1.96727
L2C PREFETCH  ACCESS:     714218  HIT:     400730  MISS:     313488  HIT %:    56.1075  MISS %:    43.8925   MPKI: 1.56744
L2C DATA PREFETCH MPKI: 1.56744
L2C INSTRUCTION PREFETCH MPKI: 0
L2C WRITEBACK ACCESS:     822417  HIT:     755149  MISS:      67268  HIT %:    91.8207  MISS %:    8.17931   MPKI: 0.33634
L2C LOAD TRANSLATION ACCESS:   10032479  HIT:    9962959  MISS:      69520  HIT %:    99.3071  MISS %:   0.692949   MPKI: 0.3476
L2C TRANSLATION FROM L1D PREFETCHER ACCESS:      31875  HIT:      30997  MISS:        878  HIT %:    97.2455  MISS %:    2.75451   MPKI: 0.00439
L2C PREFETCH  REQUESTED:          0  ISSUED:          0  USEFUL:      93523  USELESS:     221485
L2C USEFUL LOAD PREFETCHES:      93523 PREFETCH ISSUED TO LOWER LEVEL:     344762  ACCURACY: 27.1268
L2C TIMELY PREFETCHES:      93523 LATE PREFETCHES: 31177 DROPPED PREFETCHES: 0
L2C PREFETCHES SAME FILL-ORIGIN LEVEL: 237907 DIFFERENT FILL-ORIGIN LEVEL: 0
L2C AVERAGE MISS LATENCY: 171.188 cycles
L2C RQ	ACCESS:   19612896	FORWARD:          0	MERGED:          0	TO_CACHE:   19612818
L2C WQ	ACCESS:     822825	FORWARD:         80	MERGED:          0	TO_CACHE:     822825
L2C PQ	ACCESS:    1169755	FORWARD:          0	MERGED:      17054	TO_CACHE:    1152699

L2C Instructions Evicting Data 102726
L2C Translations Evicting Data 60352
L2C Data Evicting Data 1007096
L2C Instructions Evicting Instructions 13129
L2C Translations Evicting Instructions 6706
L2C Data Evicting Instructions 94913
L2C Instructions Evicting Translations 6642
L2C Translations Evicting Translations 3382
L2C Data Evicting Translations 56552
L2C Dense regions hint from L2: 0
PSCL5 TOTAL     ACCESS:    9081154  HIT:    9081154  MISS:          0  HIT %:        100  MISS %:          0   MPKI: 0
PSCL5 LOAD TRANSLATION ACCESS:    9049926  HIT:    9049926  MISS:          0  HIT %:        100  MISS %:          0   MPKI: 0
PSCL5 TRANSLATION FROM L1D PREFETCHER ACCESS:      31228  HIT:      31228  MISS:          0  HIT %:        100  MISS %:          0   MPKI: 0
PSCL5 PREFETCH  REQUESTED:          0  ISSUED:          0  USEFUL:          0  USELESS:          0
PSCL5 USEFUL LOAD PREFETCHES:          0 PREFETCH ISSUED TO LOWER LEVEL:          0  ACCURACY: -nan
PSCL5 TIMELY PREFETCHES:          0 LATE PREFETCHES: 0 DROPPED PREFETCHES: 0
PSCL5 PREFETCHES SAME FILL-ORIGIN LEVEL: 0 DIFFERENT FILL-ORIGIN LEVEL: 0

PSCL4 TOTAL     ACCESS:    9081050  HIT:    9081040  MISS:         10  HIT %:    99.9999  MISS %: 0.000110119   MPKI: 5e-05
PSCL4 LOAD TRANSLATION ACCESS:    9049822  HIT:    9049812  MISS:         10  HIT %:    99.9999  MISS %: 0.000110499   MPKI: 5e-05
PSCL4 TRANSLATION FROM L1D PREFETCHER ACCESS:      31228  HIT:      31228  MISS:          0  HIT %:        100  MISS %:          0   MPKI: 0
PSCL4 PREFETCH  REQUESTED:          0  ISSUED:          0  USEFUL:          0  USELESS:          0
PSCL4 USEFUL LOAD PREFETCHES:          0 PREFETCH ISSUED TO LOWER LEVEL:          0  ACCURACY: -nan
PSCL4 TIMELY PREFETCHES:          0 LATE PREFETCHES: 0 DROPPED PREFETCHES: 0
PSCL4 PREFETCHES SAME FILL-ORIGIN LEVEL: 0 DIFFERENT FILL-ORIGIN LEVEL: 0

PSCL3 TOTAL     ACCESS:    9077525  HIT:    9076495  MISS:       1030  HIT %:    99.9887  MISS %:  0.0113467   MPKI: 0.00515
PSCL3 LOAD TRANSLATION ACCESS:    9046317  HIT:    9045287  MISS:       1030  HIT %:    99.9886  MISS %:  0.0113858   MPKI: 0.00515
PSCL3 TRANSLATION FROM L1D PREFETCHER ACCESS:      31208  HIT:      31208  MISS:          0  HIT %:        100  MISS %:          0   MPKI: 0
PSCL3 PREFETCH  REQUESTED:          0  ISSUED:          0  USEFUL:          0  USELESS:          0
PSCL3 USEFUL LOAD PREFETCHES:          0 PREFETCH ISSUED TO LOWER LEVEL:          0  ACCURACY: -nan
PSCL3 TIMELY PREFETCHES:          0 LATE PREFETCHES: 0 DROPPED PREFETCHES: 0
PSCL3 PREFETCHES SAME FILL-ORIGIN LEVEL: 0 DIFFERENT FILL-ORIGIN LEVEL: 0

PSCL2 TOTAL     ACCESS:    9080347  HIT:    8097979  MISS:     982368  HIT %:    89.1814  MISS %:    10.8186   MPKI: 4.91184
PSCL2 LOAD TRANSLATION ACCESS:    9050567  HIT:    8068199  MISS:     982368  HIT %:    89.1458  MISS %:    10.8542   MPKI: 4.91184
PSCL2 TRANSLATION FROM L1D PREFETCHER ACCESS:      29780  HIT:      29780  MISS:          0  HIT %:        100  MISS %:          0   MPKI: 0
PSCL2 PREFETCH  REQUESTED:          0  ISSUED:          0  USEFUL:          0  USELESS:          0
PSCL2 USEFUL LOAD PREFETCHES:          0 PREFETCH ISSUED TO LOWER LEVEL:          0  ACCURACY: -nan
PSCL2 TIMELY PREFETCHES:          0 LATE PREFETCHES: 0 DROPPED PREFETCHES: 0
PSCL2 PREFETCHES SAME FILL-ORIGIN LEVEL: 0 DIFFERENT FILL-ORIGIN LEVEL: 0

LLC TOTAL     ACCESS:    1871114  HIT:    1074468  MISS:     796646  HIT %:     57.424  MISS %:     42.576   MPKI: 3.98323
LLC LOAD      ACCESS:     542300  HIT:     325600  MISS:     216700  HIT %:    60.0406  MISS %:    39.9594   MPKI: 1.0835
LLC RFO       ACCESS:     393444  HIT:     167401  MISS:     226043  HIT %:    42.5476  MISS %:    57.4524   MPKI: 1.13021
LLC PREFETCH  ACCESS:     344629  HIT:      22676  MISS:     321953  HIT %:    6.57983  MISS %:    93.4202   MPKI: 1.60976
LLC WRITEBACK ACCESS:     520343  HIT:     506915  MISS:      13428  HIT %:    97.4194  MISS %:    2.58061   MPKI: 0.06714
LLC LOAD TRANSLATION ACCESS:      69520  HIT:      51780  MISS:      17740  HIT %:    74.4822  MISS %:    25.5178   MPKI: 0.0887
LLC TRANSLATION FROM L1D PREFETCHER ACCESS:        878  HIT:         96  MISS:        782  HIT %:    10.9339  MISS %:    89.0661   MPKI: 0.00391
LLC PREFETCH  REQUESTED:          0  ISSUED:          0  USEFUL:      11116  USELESS:    1501720
LLC USEFUL LOAD PREFETCHES:      11116 PREFETCH ISSUED TO LOWER LEVEL:    1515717  ACCURACY: 0.733382
LLC TIMELY PREFETCHES:      11116 LATE PREFETCHES: 0 DROPPED PREFETCHES: 0
LLC PREFETCHES SAME FILL-ORIGIN LEVEL: 0 DIFFERENT FILL-ORIGIN LEVEL: 0
LLC AVERAGE MISS LATENCY: 1037.78 cycles
LLC RQ	ACCESS:    4093620	FORWARD:          0	MERGED:          0	TO_CACHE:    4093605
LLC WQ	ACCESS:    1994940	FORWARD:         15	MERGED:          1	TO_CACHE:    1994939
LLC PQ	ACCESS:    1610876	FORWARD:          0	MERGED:          0	TO_CACHE:    1610876

LLC Dense regions hint to LLC: 0

RAW hits: 1178677
Loads Generated: 37027914
Loads sent to L1D: 35849235
Stores Generated: 17409513
Stores sent to L1D: 17409513
Major fault: 0 Minor fault: 14999
Allocated PAGES: 57634

CPU 2 cumulative IPC: 0.691477 instructions: 200000000 cycles: 289235897
ITLB TOTAL     ACCESS:   35113800  HIT:   30572970  MISS:    4540830  HIT %:    87.0682  MISS %:    12.9318   MPKI: 22.7041
ITLB LOAD TRANSLATION ACCESS:   35113800  HIT:   30572970  MISS:    4540830  HIT %:    87.0682  MISS %:    12.9318   MPKI: 22.7041
ITLB PREFETCH  REQUESTED:          0  ISSUED:          0  USEFUL:          0  USELESS:          0
ITLB USEFUL LOAD PREFETCHES:          0 PREFETCH ISSUED TO LOWER LEVEL:          0  ACCURACY: -nan
ITLB TIMELY PREFETCHES:          0 LATE PREFETCHES: 0 DROPPED PREFETCHES: 0
ITLB PREFETCHES SAME FILL-ORIGIN LEVEL: 0 DIFFERENT FILL-ORIGIN LEVEL: 0
ITLB AVERAGE MISS LATENCY: 33.5198 cycles
ITLB RQ	ACCESS:   42961027	FORWARD:          0	MERGED:    5198533	TO_CACHE:   37762494

DTLB TOTAL     ACCESS:   22899290  HIT:   16235954  MISS:    6663336  HIT %:    70.9016  MISS %:    29.0984   MPKI: 33.3167
DTLB LOAD TRANSLATION ACCESS:   22899290  HIT:   16235954  MISS:    6663336  HIT %:    70.9016  MISS %:    29.0984   MPKI: 33.3167
DTLB PREFETCH  REQUESTED:          0  ISSUED:          0  USEFUL:          0  USELESS:          0
DTLB USEFUL LOAD PREFETCHES:          0 PREFETCH ISSUED TO LOWER LEVEL:          0  ACCURACY: -nan
DTLB TIMELY PREFETCHES:          0 LATE PREFETCHES: 0 DROPPED PREFETCHES: 0
DTLB PREFETCHES SAME FILL-ORIGIN LEVEL: 0 DIFFERENT FILL-ORIGIN LEVEL: 0
DTLB AVERAGE MISS LATENCY: 35.7923 cycles
DTLB RQ	ACCESS:   34044408	FORWARD:          0	MERGED:    9176983	TO_CACHE:   24867425

STLB TOTAL     ACCESS:   14028881  HIT:    5410320  MISS:    8618561  HIT %:    38.5656  MISS %:    61.4344   MPKI: 43.0928
STLB LOAD TRANSLATION ACCESS:   11204166  HIT:    2600245  MISS:    8603921  HIT %:    23.2078  MISS %:    76.7922   MPKI: 43.0196
STLB TRANSLATION FROM L1D PREFETCHER ACCESS:    2824715  HIT:    2810075  MISS:      14640  HIT %:    99.4817  MISS %:   0.518282   MPKI: 0.0732
STLB PREFETCH  REQUESTED:          0  ISSUED:          0  USEFUL:      12479  USELESS:       2423
STLB USEFUL LOAD PREFETCHES:      12479 PREFETCH ISSUED TO LOWER LEVEL:          0  ACCURACY: inf
STLB TIMELY PREFETCHES:      12479 LATE PREFETCHES: 0 DROPPED PREFETCHES: 35931
STLB PREFETCHES SAME FILL-ORIGIN LEVEL: 0 DIFFERENT FILL-ORIGIN LEVEL: 0
STLB AVERAGE MISS LATENCY: 33.2297 cycles
STLB RQ	ACCESS:   24358645	FORWARD:          0	MERGED:    9908196	TO_CACHE:   14450449

STLB Hit, L1D data hit: 0
STLB Hit, L2C data hit: 0
STLB Hit, LLC data hit: 0
STLB Hit, LLC data miss: 0
STLB STLB hints to L2: 0
L1D TOTAL     ACCESS:   39979898  HIT:   37924212  MISS:    2055686  HIT %:    94.8582  MISS %:     5.1418   MPKI: 10.2784
L1D LOAD      ACCESS:   19291392  HIT:   17995523  MISS:    1295869  HIT %:    93.2827  MISS %:    6.71734   MPKI: 6.47935
L1D RFO       ACCESS:   12238862  HIT:   11836826  MISS:     402036  HIT %:    96.7151  MISS %:    3.28491   MPKI: 2.01018
L1D PREFETCH  ACCESS:    8449644  HIT:    8091863  MISS:     357781  HIT %:    95.7657  MISS %:    4.23427   MPKI: 1.7889
L1D PREFETCH  REQUESTED:   31214773  ISSUED:   31143487  USEFUL:     350898  USELESS:       8320
L1D USEFUL LOAD PREFETCHES:     350898 PREFETCH ISSUED TO LOWER LEVEL:    2586354  ACCURACY: 13.5673
L1D TIMELY PREFETCHES:     350898 LATE PREFETCHES: 21715 DROPPED PREFETCHES: 126670
L1D PREFETCHES SAME FILL-ORIGIN LEVEL: 380980 DIFFERENT FILL-ORIGIN LEVEL: 2205374
L1D AVERAGE MISS LATENCY: 84.5269 cycles
L1D RQ	ACCESS:   35176101	FORWARD:          0	MERGED:   15106156	TO_CACHE:   20017172
L1D WQ	ACCESS:   14103757	FORWARD:      52778	MERGED:      76521	TO_CACHE:   14027236
L1D PQ	ACCESS:   18354866	FORWARD:          0	MERGED:    5566240	TO_CACHE:   12788621

L1D UNIQUE REGIONS ACCESSED: 0
L1D REGIONS CONFLICTS: 0
L1D Cross Page Prefetch Requests: 2949846
L1D Same Page Prefetch Requests: 31448952
L1D ROI Sum of L1D PQ occupancy: 167756620
L1D PREFETCHES PUSHED FROM L2C: 0
L1I TOTAL     ACCESS:   40016277  HIT:   34332445  MISS:    5683832  HIT %:    85.7962  MISS %:    14.2038   MPKI: 28.4192
L1I LOAD      ACCESS:   40016277  HIT:   34332445  MISS:    5683832  HIT %:    85.7962  MISS %:    14.2038   MPKI: 28.4192
L1I PREFETCH  REQUESTED:          0  ISSUED:          0  USEFUL:          0  USELESS:          0
L1I USEFUL LOAD PREFETCHES:          0 PREFETCH ISSUED TO LOWER LEVEL:          0  ACCURACY: -nan
L1I TIMELY PREFETCHES:          0 LATE PREFETCHES: 0 DROPPED PREFETCHES: 0
L1I PREFETCHES SAME FILL-ORIGIN LEVEL: 0 DIFFERENT FILL-ORIGIN LEVEL: 0
L1I AVERAGE MISS LATENCY: 14.4322 cycles
L1I RQ	ACCESS:   75177521	FORWARD:          0	MERGED:   32216494	TO_CACHE:   42961027

BTB BRANCH_DIRECT_JUMP	ACCESS:          0  HIT:          0  MISS:          0
BTB BRANCH_INDIRECT	ACCESS:          0  HIT:          0  MISS:          0
BTB BRANCH_CONDITIONAL	ACCESS:          0  HIT:          0  MISS:          0
BTB BRANCH_DIRECT_CALL	ACCESS:          0  HIT:          0  MISS:          0
BTB BRANCH_INDIRECT_CALL	ACCESS:          0  HIT:          0  MISS:          0
BTB BRANCH_RETURN	ACCESS:          0  HIT:          0  MISS:          0
BTB BRANCH_OTHER ACCESS:          0  HIT:          0  MISS:          0

L2C TOTAL     ACCESS:   19296084  HIT:   17951982  MISS:    1344102  HIT %:    93.0343  MISS %:    6.96567   MPKI: 6.72051
L2C LOAD      ACCESS:    6958290  HIT:    6432011  MISS:     526279  HIT %:    92.4367  MISS %:    7.56334   MPKI: 2.63139
L2C DATA LOAD MPKI: 1.88935
L2C INSTRUCTION LOAD MPKI: 0.742045
L2C RFO       ACCESS:     401951  HIT:     194876  MISS:     207075  HIT %:    48.4825  MISS %:    51.5175   MPKI: 1.03537
L2C PREFETCH  ACCESS:    1360886  HIT:     862815  MISS:     498071  HIT %:     63.401  MISS %:     36.599   MPKI: 2.49036
L2C DATA PREFETCH MPKI: 2.49036
L2C INSTRUCTION PREFETCH MPKI: 0
L2C WRITEBACK ACCESS:     757590  HIT:     710222  MISS:      47368  HIT %:    93.7475  MISS %:    6.25246   MPKI: 0.23684
L2C LOAD TRANSLATION ACCESS:    9766487  HIT:    9702440  MISS:      64047  HIT %:    99.3442  MISS %:   0.655783   MPKI: 0.320235
L2C TRANSLATION FROM L1D PREFETCHER ACCESS:      50880  HIT:      49618  MISS:       1262  HIT %:    97.5197  MISS %:    2.48035   MPKI: 0.00631
L2C PREFETCH  REQUESTED:          0  ISSUED:          0  USEFUL:     123899  USELESS:     379672
L2C USEFUL LOAD PREFETCHES:     123899 PREFETCH ISSUED TO LOWER LEVEL:     525381  ACCURACY: 23.5827
L2C TIMELY PREFETCHES:     123899 LATE PREFETCHES: 24406 DROPPED PREFETCHES: 0
L2C PREFETCHES SAME FILL-ORIGIN LEVEL: 286720 DIFFERENT FILL-ORIGIN LEVEL: 0
L2C AVERAGE MISS LATENCY: 168.706 cycles
L2C RQ	ACCESS:   17741355	FORWARD:          0	MERGED:          1	TO_CACHE:   17741233
L2C WQ	ACCESS:     780957	FORWARD:        121	MERGED:          0	TO_CACHE:     780957
L2C PQ	ACCESS:    2571054	FORWARD:          0	MERGED:      21518	TO_CACHE:    2549536

L2C Instructions Evicting Data 114501
L2C Translations Evicting Data 54724
L2C Data Evicting Data 942794
L2C Instructions Evicting Instructions 28290
L2C Translations Evicting Instructions 8718
L2C Data Evicting Instructions 107126
L2C Instructions Evicting Translations 8427
L2C Translations Evicting Translations 3657
L2C Data Evicting Translations 51920
L2C Dense regions hint from L2: 0
PSCL5 TOTAL     ACCESS:    8654313  HIT:    8654313  MISS:          0  HIT %:        100  MISS %:          0   MPKI: 0
PSCL5 LOAD TRANSLATION ACCESS:    8603922  HIT:    8603922  MISS:          0  HIT %:        100  MISS %:          0   MPKI: 0
PSCL5 TRANSLATION FROM L1D PREFETCHER ACCESS:      50391  HIT:      50391  MISS:          0  HIT %:        100  MISS %:          0   MPKI: 0
PSCL5 PREFETCH  REQUESTED:          0  ISSUED:          0  USEFUL:          0  USELESS:          0
PSCL5 USEFUL LOAD PREFETCHES:          0 PREFETCH ISSUED TO LOWER LEVEL:          0  ACCURACY: -nan
PSCL5 TIMELY PREFETCHES:          0 LATE PREFETCHES: 0 DROPPED PREFETCHES: 0
PSCL5 PREFETCHES SAME FILL-ORIGIN LEVEL: 0 DIFFERENT FILL-ORIGIN LEVEL: 0

PSCL4 TOTAL     ACCESS:    8650627  HIT:    8650617  MISS:         10  HIT %:    99.9999  MISS %: 0.000115599   MPKI: 5e-05
PSCL4 LOAD TRANSLATION ACCESS:    8602229  HIT:    8602219  MISS:         10  HIT %:    99.9999  MISS %: 0.000116249   MPKI: 5e-05
PSCL4 TRANSLATION FROM L1D PREFETCHER ACCESS:      48398  HIT:      48398  MISS:          0  HIT %:        100  MISS %:          0   MPKI: 0
PSCL4 PREFETCH  REQUESTED:          0  ISSUED:          0  USEFUL:          0  USELESS:          0
PSCL4 USEFUL LOAD PREFETCHES:          0 PREFETCH ISSUED TO LOWER LEVEL:          0  ACCURACY: -nan
PSCL4 TIMELY PREFETCHES:          0 LATE PREFETCHES: 0 DROPPED PREFETCHES: 0
PSCL4 PREFETCHES SAME FILL-ORIGIN LEVEL: 0 DIFFERENT FILL-ORIGIN LEVEL: 0

PSCL3 TOTAL     ACCESS:    8652439  HIT:    8651744  MISS:        695  HIT %:     99.992  MISS %: 0.00803242   MPKI: 0.003475
PSCL3 LOAD TRANSLATION ACCESS:    8602088  HIT:    8601393  MISS:        695  HIT %:    99.9919  MISS %: 0.00807943   MPKI: 0.003475
PSCL3 TRANSLATION FROM L1D PREFETCHER ACCESS:      50351  HIT:      50351  MISS:          0  HIT %:        100  MISS %:          0   MPKI: 0
PSCL3 PREFETCH  REQUESTED:          0  ISSUED:          0  USEFUL:          0  USELESS:          0
PSCL3 USEFUL LOAD PREFETCHES:          0 PREFETCH ISSUED TO LOWER LEVEL:          0  ACCURACY: -nan
PSCL3 TIMELY PREFETCHES:          0 LATE PREFETCHES: 0 DROPPED PREFETCHES: 0
PSCL3 PREFETCHES SAME FILL-ORIGIN LEVEL: 0 DIFFERENT FILL-ORIGIN LEVEL: 0

PSCL2 TOTAL     ACCESS:    8654128  HIT:    7491772  MISS:    1162356  HIT %:    86.5688  MISS %:    13.4312   MPKI: 5.81178
PSCL2 LOAD TRANSLATION ACCESS:    8604275  HIT:    7441919  MISS:    1162356  HIT %:    86.4909  MISS %:    13.5091   MPKI: 5.81178
PSCL2 TRANSLATION FROM L1D PREFETCHER ACCESS:      49853  HIT:      49853  MISS:          0  HIT %:        100  MISS %:          0   MPKI: 0
PSCL2 PREFETCH  REQUESTED:          0  ISSUED:          0  USEFUL:          0  USELESS:          0
PSCL2 USEFUL LOAD PREFETCHES:          0 PREFETCH ISSUED TO LOWER LEVEL:          0  ACCURACY: -nan
PSCL2 TIMELY PREFETCHES:          0 LATE PREFETCHES: 0 DROPPED PREFETCHES: 0
PSCL2 PREFETCHES SAME FILL-ORIGIN LEVEL: 0 DIFFERENT FILL-ORIGIN LEVEL: 0

LLC TOTAL     ACCESS:    1633678  HIT:     773010  MISS:     860668  HIT %:    47.3172  MISS %:    52.6828   MPKI: 4.30334
LLC LOAD      ACCESS:     502252  HIT:     320049  MISS:     182203  HIT %:    63.7228  MISS %:    36.2772   MPKI: 0.911015
LLC RFO       ACCESS:     207071  HIT:      67492  MISS:     139579  HIT %:    32.5937  MISS %:    67.4063   MPKI: 0.697895
LLC PREFETCH  ACCESS:     522095  HIT:      12352  MISS:     509743  HIT %:    2.36585  MISS %:    97.6341   MPKI: 2.54872
LLC WRITEBACK ACCESS:     336951  HIT:     326037  MISS:      10914  HIT %:     96.761  MISS %:    3.23905   MPKI: 0.05457
LLC LOAD TRANSLATION ACCESS:      64047  HIT:      47001  MISS:      17046  HIT %:    73.3852  MISS %:    26.6148   MPKI: 0.08523
LLC TRANSLATION FROM L1D PREFETCHER ACCESS:       1262  HIT:         79  MISS:       1183  HIT %:     6.2599  MISS %:    93.7401   MPKI: 0.005915
LLC PREFETCH  REQUESTED:          0  ISSUED:          0  USEFUL:      11116  USELESS:    1501720
LLC USEFUL LOAD PREFETCHES:      11116 PREFETCH ISSUED TO LOWER LEVEL:    1515717  ACCURACY: 0.733382
LLC TIMELY PREFETCHES:      11116 LATE PREFETCHES: 0 DROPPED PREFETCHES: 0
LLC PREFETCHES SAME FILL-ORIGIN LEVEL: 0 DIFFERENT FILL-ORIGIN LEVEL: 0
LLC AVERAGE MISS LATENCY: 960.583 cycles
LLC RQ	ACCESS:    4093620	FORWARD:          0	MERGED:          0	TO_CACHE:    4093605
LLC WQ	ACCESS:    1994940	FORWARD:         15	MERGED:          1	TO_CACHE:    1994939
LLC PQ	ACCESS:    1610876	FORWARD:          0	MERGED:          0	TO_CACHE:    1610876

LLC Dense regions hint to LLC: 0

RAW hits: 659038
Loads Generated: 34929371
Loads sent to L1D: 34270333
Stores Generated: 13656356
Stores sent to L1D: 13656355
Major fault: 0 Minor fault: 14712
Allocated PAGES: 57634

CPU 3 cumulative IPC: 0.676962 instructions: 200000000 cycles: 295437408
ITLB TOTAL     ACCESS:   35518137  HIT:   29822453  MISS:    5695684  HIT %:     83.964  MISS %:     16.036   MPKI: 28.4784
ITLB LOAD TRANSLATION ACCESS:   35518137  HIT:   29822453  MISS:    5695684  HIT %:     83.964  MISS %:     16.036   MPKI: 28.4784
ITLB PREFETCH  REQUESTED:          0  ISSUED:          0  USEFUL:          0  USELESS:          0
ITLB USEFUL LOAD PREFETCHES:          0 PREFETCH ISSUED TO LOWER LEVEL:          0  ACCURACY: -nan
ITLB TIMELY PREFETCHES:          0 LATE PREFETCHES: 0 DROPPED PREFETCHES: 0
ITLB PREFETCHES SAME FILL-ORIGIN LEVEL: 0 DIFFERENT FILL-ORIGIN LEVEL: 0
ITLB AVERAGE MISS LATENCY: 29.8513 cycles
ITLB RQ	ACCESS:   44471823	FORWARD:          0	MERGED:    6379289	TO_CACHE:   38092534

DTLB TOTAL     ACCESS:   24180500  HIT:   17073018  MISS:    7107482  HIT %:    70.6066  MISS %:    29.3934   MPKI: 35.5374
DTLB LOAD TRANSLATION ACCESS:   24180500  HIT:   17073018  MISS:    7107482  HIT %:    70.6066  MISS %:    29.3934   MPKI: 35.5374
DTLB PREFETCH  REQUESTED:          0  ISSUED:          0  USEFUL:          0  USELESS:          0
DTLB USEFUL LOAD PREFETCHES:          0 PREFETCH ISSUED TO LOWER LEVEL:          0  ACCURACY: -nan
DTLB TIMELY PREFETCHES:          0 LATE PREFETCHES: 0 DROPPED PREFETCHES: 0
DTLB PREFETCHES SAME FILL-ORIGIN LEVEL: 0 DIFFERENT FILL-ORIGIN LEVEL: 0
DTLB AVERAGE MISS LATENCY: 31.9466 cycles
DTLB RQ	ACCESS:   37034100	FORWARD:          0	MERGED:   11158745	TO_CACHE:   25875355

STLB TOTAL     ACCESS:   13658228  HIT:    4274812  MISS:    9383416  HIT %:    31.2984  MISS %:    68.7016   MPKI: 46.9171
STLB LOAD TRANSLATION ACCESS:   12803166  HIT:    3435006  MISS:    9368160  HIT %:    26.8293  MISS %:    73.1707   MPKI: 46.8408
STLB TRANSLATION FROM L1D PREFETCHER ACCESS:     855062  HIT:     839806  MISS:      15256  HIT %:    98.2158  MISS %:     1.7842   MPKI: 0.07628
STLB PREFETCH  REQUESTED:          0  ISSUED:          0  USEFUL:      12595  USELESS:       2717
STLB USEFUL LOAD PREFETCHES:      12595 PREFETCH ISSUED TO LOWER LEVEL:          0  ACCURACY: inf
STLB TIMELY PREFETCHES:      12595 LATE PREFETCHES: 0 DROPPED PREFETCHES: 16379
STLB PREFETCHES SAME FILL-ORIGIN LEVEL: 0 DIFFERENT FILL-ORIGIN LEVEL: 0
STLB AVERAGE MISS LATENCY: 29.9432 cycles
STLB RQ	ACCESS:   16878431	FORWARD:          0	MERGED:    3115886	TO_CACHE:   13762545

STLB Hit, L1D data hit: 0
STLB Hit, L2C data hit: 0
STLB Hit, LLC data hit: 0
STLB Hit, LLC data miss: 0
STLB STLB hints to L2: 0
L1D TOTAL     ACCESS:   36937837  HIT:   34953201  MISS:    1984636  HIT %:    94.6271  MISS %:    5.37291   MPKI: 9.92318
L1D LOAD      ACCESS:   19645957  HIT:   18430942  MISS:    1215015  HIT %:    93.8154  MISS %:    6.18455   MPKI: 6.07508
L1D RFO       ACCESS:   14968360  HIT:   14425968  MISS:     542392  HIT %:    96.3764  MISS %:    3.62359   MPKI: 2.71196
L1D PREFETCH  ACCESS:    2323520  HIT:    2096291  MISS:     227229  HIT %:    90.2205  MISS %:    9.77952   MPKI: 1.13614
L1D PREFETCH  REQUESTED:    9578458  ISSUED:    9466435  USEFUL:     205886  USELESS:      22133
L1D USEFUL LOAD PREFETCHES:     205886 PREFETCH ISSUED TO LOWER LEVEL:    1345655  ACCURACY: 15.3001
L1D TIMELY PREFETCHES:     205886 LATE PREFETCHES: 41999 DROPPED PREFETCHES: 57682
L1D PREFETCHES SAME FILL-ORIGIN LEVEL: 270059 DIFFERENT FILL-ORIGIN LEVEL: 1075596
L1D AVERAGE MISS LATENCY: 95.091 cycles
L1D RQ	ACCESS:   35950328	FORWARD:          0	MERGED:   15943958	TO_CACHE:   19891443
L1D WQ	ACCESS:   17287098	FORWARD:     114931	MERGED:     144441	TO_CACHE:   17142657
L1D PQ	ACCESS:    5460271	FORWARD:          0	MERGED:    1454103	TO_CACHE:    4006164

L1D UNIQUE REGIONS ACCESSED: 0
L1D REGIONS CONFLICTS: 0
L1D Cross Page Prefetch Requests: 1014449
L1D Same Page Prefetch Requests: 9060560
L1D ROI Sum of L1D PQ occupancy: 72264153
L1D PREFETCHES PUSHED FROM L2C: 0
L1I TOTAL     ACCESS:   41680596  HIT:   33983841  MISS:    7696755  HIT %:     81.534  MISS %:     18.466   MPKI: 38.4838
L1I LOAD      ACCESS:   41680596  HIT:   33983841  MISS:    7696755  HIT %:     81.534  MISS %:     18.466   MPKI: 38.4838
L1I PREFETCH  REQUESTED:          0  ISSUED:          0  USEFUL:          0  USELESS:          0
L1I USEFUL LOAD PREFETCHES:          0 PREFETCH ISSUED TO LOWER LEVEL:          0  ACCURACY: -nan
L1I TIMELY PREFETCHES:          0 LATE PREFETCHES: 0 DROPPED PREFETCHES: 0
L1I PREFETCHES SAME FILL-ORIGIN LEVEL: 0 DIFFERENT FILL-ORIGIN LEVEL: 0
L1I AVERAGE MISS LATENCY: 13.1649 cycles
L1I RQ	ACCESS:   78561617	FORWARD:          0	MERGED:   34089794	TO_CACHE:   44471823

BTB BRANCH_DIRECT_JUMP	ACCESS:          0  HIT:          0  MISS:          0
BTB BRANCH_INDIRECT	ACCESS:          0  HIT:          0  MISS:          0
BTB BRANCH_CONDITIONAL	ACCESS:          0  HIT:          0  MISS:          0
BTB BRANCH_DIRECT_CALL	ACCESS:          0  HIT:          0  MISS:          0
BTB BRANCH_INDIRECT_CALL	ACCESS:          0  HIT:          0  MISS:          0
BTB BRANCH_RETURN	ACCESS:          0  HIT:          0  MISS:          0
BTB BRANCH_OTHER ACCESS:          0  HIT:          0  MISS:          0

L2C TOTAL     ACCESS:   21392082  HIT:   19816467  MISS:    1575615  HIT %:    92.6346  MISS %:    7.36541   MPKI: 7.87807
L2C LOAD      ACCESS:    8869980  HIT:    8155577  MISS:     714403  HIT %:    91.9458  MISS %:    8.05417   MPKI: 3.57201
L2C DATA LOAD MPKI: 2.94219
L2C INSTRUCTION LOAD MPKI: 0.629825
L2C RFO       ACCESS:     542336  HIT:     152801  MISS:     389535  HIT %:    28.1746  MISS %:    71.8254   MPKI: 1.94768
L2C PREFETCH  ACCESS:     786756  HIT:     457423  MISS:     329333  HIT %:    58.1404  MISS %:    41.8596   MPKI: 1.64667
L2C DATA PREFETCH MPKI: 1.64667
L2C INSTRUCTION PREFETCH MPKI: 0
L2C WRITEBACK ACCESS:     834034  HIT:     762853  MISS:      71181  HIT %:    91.4655  MISS %:    8.53454   MPKI: 0.355905
L2C LOAD TRANSLATION ACCESS:   10326928  HIT:   10256658  MISS:      70270  HIT %:    99.3195  MISS %:   0.680454   MPKI: 0.35135
L2C TRANSLATION FROM L1D PREFETCHER ACCESS:      32048  HIT:      31155  MISS:        893  HIT %:    97.2136  MISS %:    2.78645   MPKI: 0.004465
L2C PREFETCH  REQUESTED:          0  ISSUED:          0  USEFUL:     104104  USELESS:     228063
L2C USEFUL LOAD PREFETCHES:     104104 PREFETCH ISSUED TO LOWER LEVEL:     361876  ACCURACY: 28.7679
L2C TIMELY PREFETCHES:     104104 LATE PREFETCHES: 31083 DROPPED PREFETCHES: 0
L2C PREFETCHES SAME FILL-ORIGIN LEVEL: 254105 DIFFERENT FILL-ORIGIN LEVEL: 0
L2C AVERAGE MISS LATENCY: 155.243 cycles
L2C RQ	ACCESS:   19880043	FORWARD:          0	MERGED:          0	TO_CACHE:   19879994
L2C WQ	ACCESS:     837763	FORWARD:         49	MERGED:          0	TO_CACHE:     837763
L2C PQ	ACCESS:    1313982	FORWARD:          0	MERGED:      17286	TO_CACHE:    1296696

L2C Instructions Evicting Data 106980
L2C Translations Evicting Data 61340
L2C Data Evicting Data 1155864
L2C Instructions Evicting Instructions 13461
L2C Translations Evicting Instructions 6236
L2C Data Evicting Instructions 99102
L2C Instructions Evicting Translations 6196
L2C Translations Evicting Translations 3962
L2C Data Evicting Translations 57689
L2C Dense regions hint from L2: 0
PSCL5 TOTAL     ACCESS:    9399721  HIT:    9399721  MISS:          0  HIT %:        100  MISS %:          0   MPKI: 0
PSCL5 LOAD TRANSLATION ACCESS:    9368161  HIT:    9368161  MISS:          0  HIT %:        100  MISS %:          0   MPKI: 0
PSCL5 TRANSLATION FROM L1D PREFETCHER ACCESS:      31560  HIT:      31560  MISS:          0  HIT %:        100  MISS %:          0   MPKI: 0
PSCL5 PREFETCH  REQUESTED:          0  ISSUED:          0  USEFUL:          0  USELESS:          0
PSCL5 USEFUL LOAD PREFETCHES:          0 PREFETCH ISSUED TO LOWER LEVEL:          0  ACCURACY: -nan
PSCL5 TIMELY PREFETCHES:          0 LATE PREFETCHES: 0 DROPPED PREFETCHES: 0
PSCL5 PREFETCHES SAME FILL-ORIGIN LEVEL: 0 DIFFERENT FILL-ORIGIN LEVEL: 0

PSCL4 TOTAL     ACCESS:    9399721  HIT:    9399721  MISS:          0  HIT %:        100  MISS %:          0   MPKI: 0
PSCL4 LOAD TRANSLATION ACCESS:    9368161  HIT:    9368161  MISS:          0  HIT %:        100  MISS %:          0   MPKI: 0
PSCL4 TRANSLATION FROM L1D PREFETCHER ACCESS:      31560  HIT:      31560  MISS:          0  HIT %:        100  MISS %:          0   MPKI: 0
PSCL4 PREFETCH  REQUESTED:          0  ISSUED:          0  USEFUL:          0  USELESS:          0
PSCL4 USEFUL LOAD PREFETCHES:          0 PREFETCH ISSUED TO LOWER LEVEL:          0  ACCURACY: -nan
PSCL4 TIMELY PREFETCHES:          0 LATE PREFETCHES: 0 DROPPED PREFETCHES: 0
PSCL4 PREFETCHES SAME FILL-ORIGIN LEVEL: 0 DIFFERENT FILL-ORIGIN LEVEL: 0

PSCL3 TOTAL     ACCESS:    9395339  HIT:    9394129  MISS:       1210  HIT %:    99.9871  MISS %:  0.0128787   MPKI: 0.00605
PSCL3 LOAD TRANSLATION ACCESS:    9363798  HIT:    9362588  MISS:       1210  HIT %:    99.9871  MISS %:  0.0129221   MPKI: 0.00605
PSCL3 TRANSLATION FROM L1D PREFETCHER ACCESS:      31541  HIT:      31541  MISS:          0  HIT %:        100  MISS %:          0   MPKI: 0
PSCL3 PREFETCH  REQUESTED:          0  ISSUED:          0  USEFUL:          0  USELESS:          0
PSCL3 USEFUL LOAD PREFETCHES:          0 PREFETCH ISSUED TO LOWER LEVEL:          0  ACCURACY: -nan
PSCL3 TIMELY PREFETCHES:          0 LATE PREFETCHES: 0 DROPPED PREFETCHES: 0
PSCL3 PREFETCHES SAME FILL-ORIGIN LEVEL: 0 DIFFERENT FILL-ORIGIN LEVEL: 0

PSCL2 TOTAL     ACCESS:    9399549  HIT:    8441410  MISS:     958139  HIT %:    89.8065  MISS %:    10.1935   MPKI: 4.7907
PSCL2 LOAD TRANSLATION ACCESS:    9368633  HIT:    8410494  MISS:     958139  HIT %:    89.7729  MISS %:    10.2271   MPKI: 4.7907
PSCL2 TRANSLATION FROM L1D PREFETCHER ACCESS:      30916  HIT:      30916  MISS:          0  HIT %:        100  MISS %:          0   MPKI: 0
PSCL2 PREFETCH  REQUESTED:          0  ISSUED:          0  USEFUL:          0  USELESS:          0
PSCL2 USEFUL LOAD PREFETCHES:          0 PREFETCH ISSUED TO LOWER LEVEL:          0  ACCURACY: -nan
PSCL2 TIMELY PREFETCHES:          0 LATE PREFETCHES: 0 DROPPED PREFETCHES: 0
PSCL2 PREFETCHES SAME FILL-ORIGIN LEVEL: 0 DIFFERENT FILL-ORIGIN LEVEL: 0

LLC TOTAL     ACCESS:    2059758  HIT:    1289969  MISS:     769789  HIT %:    62.6272  MISS %:    37.3728   MPKI: 3.84895
LLC LOAD      ACCESS:     683412  HIT:     483854  MISS:     199558  HIT %:    70.7998  MISS %:    29.2002   MPKI: 0.99779
LLC RFO       ACCESS:     389533  HIT:     174221  MISS:     215312  HIT %:    44.7256  MISS %:    55.2744   MPKI: 1.07656
LLC PREFETCH  ACCESS:     360326  HIT:      33872  MISS:     326454  HIT %:    9.40038  MISS %:    90.5996   MPKI: 1.63227
LLC WRITEBACK ACCESS:     555324  HIT:     543085  MISS:      12239  HIT %:    97.7961  MISS %:    2.20394   MPKI: 0.061195
LLC LOAD TRANSLATION ACCESS:      70270  HIT:      54783  MISS:      15487  HIT %:    77.9607  MISS %:    22.0393   MPKI: 0.077435
LLC TRANSLATION FROM L1D PREFETCHER ACCESS:        893  HIT:        154  MISS:        739  HIT %:    17.2452  MISS %:    82.7548   MPKI: 0.003695
LLC PREFETCH  REQUESTED:          0  ISSUED:          0  USEFUL:      11116  USELESS:    1501720
LLC USEFUL LOAD PREFETCHES:      11116 PREFETCH ISSUED TO LOWER LEVEL:    1515717  ACCURACY: 0.733382
LLC TIMELY PREFETCHES:      11116 LATE PREFETCHES: 0 DROPPED PREFETCHES: 0
LLC PREFETCHES SAME FILL-ORIGIN LEVEL: 0 DIFFERENT FILL-ORIGIN LEVEL: 0
LLC AVERAGE MISS LATENCY: 1073.99 cycles
LLC RQ	ACCESS:    4093620	FORWARD:          0	MERGED:          0	TO_CACHE:    4093605
LLC WQ	ACCESS:    1994940	FORWARD:         15	MERGED:          1	TO_CACHE:    1994939
LLC PQ	ACCESS:    1610876	FORWARD:          0	MERGED:          0	TO_CACHE:    1610876

LLC Dense regions hint to LLC: 0

RAW hits: 1129634
Loads Generated: 36887186
Loads sent to L1D: 35757552
Stores Generated: 17189358
Stores sent to L1D: 17189362
Major fault: 0 Minor fault: 13545
Allocated PAGES: 57634

DRAM Statistics
 CHANNEL 0
 RQ ROW_BUFFER_HIT:    1228773  ROW_BUFFER_MISS:    1997831
 DBUS_CONGESTED:       2353
 WQ ROW_BUFFER_HIT:     144335  ROW_BUFFER_MISS:     885252  FULL:          0

 AVG_CONGESTED_CYCLE: 4
 All warmup complete: 5
Channel 0 Bank busy for read cycles: 0
Channel 0 Bank busy for write cycles: 0
Channel 0
Rank 0
0banks busy for read cycles: 119620230
0banks busy for write cycles: 81382
1banks busy for read cycles: 48953800
1banks busy for write cycles: 10633708
2banks busy for read cycles: 29541140
2banks busy for write cycles: 5879072
3banks busy for read cycles: 14884510
3banks busy for write cycles: 4299439
4banks busy for read cycles: 8663874
4banks busy for write cycles: 3449323
5banks busy for read cycles: 5782800
5banks busy for write cycles: 3009525
6banks busy for read cycles: 4735813
6banks busy for write cycles: 2822895
7banks busy for read cycles: 4700661
7banks busy for write cycles: 3944348
8banks busy for read cycles: 11609091
8banks busy for write cycles: 14387236

CPU 0 Branch Prediction Accuracy: 99.2237% MPKI: 1.43615 Average ROB Occupancy at Mispredict: 43.421
Branch types
NOT_BRANCH: 0 0%
BRANCH_DIRECT_JUMP: 0 0%
BRANCH_INDIRECT: 0 0%
BRANCH_CONDITIONAL: 0 0%
BRANCH_DIRECT_CALL: 0 0%
BRANCH_INDIRECT_CALL: 0 0%
BRANCH_RETURN: 0 0%
BRANCH_OTHER: 0 0%


CPU 1 Branch Prediction Accuracy: 99.2913% MPKI: 1.31545 Average ROB Occupancy at Mispredict: 46.0566
Branch types
NOT_BRANCH: 0 0%
BRANCH_DIRECT_JUMP: 0 0%
BRANCH_INDIRECT: 0 0%
BRANCH_CONDITIONAL: 0 0%
BRANCH_DIRECT_CALL: 0 0%
BRANCH_INDIRECT_CALL: 0 0%
BRANCH_RETURN: 0 0%
BRANCH_OTHER: 0 0%


CPU 2 Branch Prediction Accuracy: 99.1834% MPKI: 1.44878 Average ROB Occupancy at Mispredict: 40.7045
Branch types
NOT_BRANCH: 0 0%
BRANCH_DIRECT_JUMP: 0 0%
BRANCH_INDIRECT: 0 0%
BRANCH_CONDITIONAL: 0 0%
BRANCH_DIRECT_CALL: 0 0%
BRANCH_INDIRECT_CALL: 0 0%
BRANCH_RETURN: 0 0%
BRANCH_OTHER: 0 0%


CPU 3 Branch Prediction Accuracy: 99.2978% MPKI: 1.30359 Average ROB Occupancy at Mispredict: 44.7621
Branch types
NOT_BRANCH: 0 0%
BRANCH_DIRECT_JUMP: 0 0%
BRANCH_INDIRECT: 0 0%
BRANCH_CONDITIONAL: 0 0%
BRANCH_DIRECT_CALL: 0 0%
BRANCH_INDIRECT_CALL: 0 0%
BRANCH_RETURN: 0 0%
BRANCH_OTHER: 0 0%

DRAM PAGES: 1048576
Allocated PAGES: 57634
