
*** ChampSim Multicore Out-of-Order Simulator ***

Warmup Instructions: 50000000
Simulation Instructions: 200000000
Number of CPUs: 4
LLC sets: 8192
LLC ways: 16
Off-chip DRAM Size: 4096 MB Channels: 1 Width: 64-bit Data Rate: 6400 MT/s
CPU 0 runs ./traces/spec/603.bwaves_s-2931B.champsimtrace.xz
.xz
CPU 1 runs ./traces/spec/603.bwaves_s-2931B.champsimtrace.xz
.xz
CPU 2 runs ./traces/spec/603.bwaves_s-2931B.champsimtrace.xz
.xz
CPU 3 runs ./traces/spec/603.bwaves_s-2931B.champsimtrace.xz
.xz
BTB has LRU replacement policy
ITLB has LRU replacement policy
DTLB has LRU replacement policy
STLB has LRU replacement policy
L1I has LRU replacement policy
History Sets: 8
History Ways: 16
BERTI Size: 16
BERTI Stride Size: 8
L1D has LRU replacement policy
Initialize SRRIP state for L2C
Initialize DRRIP state for LLC
BTB has LRU replacement policy
ITLB has LRU replacement policy
DTLB has LRU replacement policy
STLB has LRU replacement policy
L1I has LRU replacement policy
History Sets: 8
History Ways: 16
BERTI Size: 16
BERTI Stride Size: 8
L1D has LRU replacement policy
Initialize SRRIP state for L2C
Initialize DRRIP state for LLC
BTB has LRU replacement policy
ITLB has LRU replacement policy
DTLB has LRU replacement policy
STLB has LRU replacement policy
L1I has LRU replacement policy
History Sets: 8
History Ways: 16
BERTI Size: 16
BERTI Stride Size: 8
L1D has LRU replacement policy
Initialize SRRIP state for L2C
Initialize DRRIP state for LLC
BTB has LRU replacement policy
ITLB has LRU replacement policy
DTLB has LRU replacement policy
STLB has LRU replacement policy
L1I has LRU replacement policy
History Sets: 8
History Ways: 16
BERTI Size: 16
BERTI Stride Size: 8
L1D has LRU replacement policy
Initialize SRRIP state for L2C
Initialize DRRIP state for LLC
Heartbeat CPU 0 instructions: 10000003 cycles: 2948041 heartbeat IPC: 3.39208 cumulative IPC: 3.39208 (Simulation time: 0 hr 3 min 32 sec) 
Heartbeat CPU 1 instructions: 10000003 cycles: 2948075 heartbeat IPC: 3.39205 cumulative IPC: 3.39205 (Simulation time: 0 hr 3 min 32 sec) 
Heartbeat CPU 2 instructions: 10000003 cycles: 2948188 heartbeat IPC: 3.39192 cumulative IPC: 3.39192 (Simulation time: 0 hr 3 min 32 sec) 
Heartbeat CPU 3 instructions: 10000003 cycles: 2948217 heartbeat IPC: 3.39188 cumulative IPC: 3.39188 (Simulation time: 0 hr 3 min 32 sec) 
Heartbeat CPU 0 instructions: 20000003 cycles: 5895861 heartbeat IPC: 3.39234 cumulative IPC: 3.39221 (Simulation time: 0 hr 6 min 58 sec) 
Heartbeat CPU 1 instructions: 20000003 cycles: 5896012 heartbeat IPC: 3.3922 cumulative IPC: 3.39212 (Simulation time: 0 hr 6 min 58 sec) 
Heartbeat CPU 2 instructions: 20000003 cycles: 5896082 heartbeat IPC: 3.39225 cumulative IPC: 3.39208 (Simulation time: 0 hr 6 min 58 sec) 
Heartbeat CPU 3 instructions: 20000003 cycles: 5896180 heartbeat IPC: 3.39217 cumulative IPC: 3.39203 (Simulation time: 0 hr 6 min 58 sec) 
Heartbeat CPU 0 instructions: 30000003 cycles: 8843548 heartbeat IPC: 3.39249 cumulative IPC: 3.3923 (Simulation time: 0 hr 10 min 39 sec) 
Heartbeat CPU 2 instructions: 30000003 cycles: 8843688 heartbeat IPC: 3.39258 cumulative IPC: 3.39225 (Simulation time: 0 hr 10 min 39 sec) 
Heartbeat CPU 1 instructions: 30000003 cycles: 8843745 heartbeat IPC: 3.39244 cumulative IPC: 3.39223 (Simulation time: 0 hr 10 min 39 sec) 
Heartbeat CPU 3 instructions: 30000003 cycles: 8843847 heartbeat IPC: 3.39251 cumulative IPC: 3.39219 (Simulation time: 0 hr 10 min 39 sec) 
Heartbeat CPU 0 instructions: 40000002 cycles: 11791437 heartbeat IPC: 3.39226 cumulative IPC: 3.39229 (Simulation time: 0 hr 14 min 4 sec) 
Heartbeat CPU 2 instructions: 40000002 cycles: 11791482 heartbeat IPC: 3.39237 cumulative IPC: 3.39228 (Simulation time: 0 hr 14 min 4 sec) 
Heartbeat CPU 3 instructions: 40000002 cycles: 11791691 heartbeat IPC: 3.39231 cumulative IPC: 3.39222 (Simulation time: 0 hr 14 min 4 sec) 
Heartbeat CPU 1 instructions: 40000002 cycles: 11791692 heartbeat IPC: 3.39219 cumulative IPC: 3.39222 (Simulation time: 0 hr 14 min 4 sec) 
Heartbeat CPU 2 instructions: 50000003 cycles: 14739293 heartbeat IPC: 3.39235 cumulative IPC: 3.39229 (Simulation time: 0 hr 17 min 33 sec) 
Heartbeat CPU 0 instructions: 50000000 cycles: 14739394 heartbeat IPC: 3.39218 cumulative IPC: 3.39227 (Simulation time: 0 hr 17 min 33 sec) 
Heartbeat CPU 3 instructions: 50000000 cycles: 14739601 heartbeat IPC: 3.39223 cumulative IPC: 3.39222 (Simulation time: 0 hr 17 min 33 sec) 
Heartbeat CPU 1 instructions: 50000000 cycles: 14739697 heartbeat IPC: 3.39212 cumulative IPC: 3.3922 (Simulation time: 0 hr 17 min 33 sec) 

Warmup complete CPU 0 instructions: 50001068 cycles: 14739698 (Simulation time: 0 hr 17 min 33 sec) 
Warmup complete CPU 1 instructions: 50000004 cycles: 14739698 (Simulation time: 0 hr 17 min 33 sec) 
Warmup complete CPU 2 instructions: 50001412 cycles: 14739697 (Simulation time: 0 hr 17 min 33 sec) 
Warmup complete CPU 3 instructions: 50000333 cycles: 14739697 (Simulation time: 0 hr 17 min 33 sec) 

Heartbeat CPU 1 instructions: 60000003 cycles: 28977909 heartbeat IPC: 0.702336 cumulative IPC: 0.702335 (Simulation time: 0 hr 23 min 9 sec) 
Heartbeat CPU 3 instructions: 60000001 cycles: 29033252 heartbeat IPC: 0.699611 cumulative IPC: 0.699593 (Simulation time: 0 hr 23 min 11 sec) 
Heartbeat CPU 2 instructions: 60000001 cycles: 29102211 heartbeat IPC: 0.696237 cumulative IPC: 0.696159 (Simulation time: 0 hr 23 min 12 sec) 
Heartbeat CPU 0 instructions: 60000003 cycles: 29136967 heartbeat IPC: 0.694562 cumulative IPC: 0.694502 (Simulation time: 0 hr 23 min 13 sec) 
Heartbeat CPU 1 instructions: 70000002 cycles: 43349943 heartbeat IPC: 0.695796 cumulative IPC: 0.69905 (Simulation time: 0 hr 29 min 10 sec) 
Heartbeat CPU 3 instructions: 70000002 cycles: 43359173 heartbeat IPC: 0.698035 cumulative IPC: 0.698813 (Simulation time: 0 hr 29 min 10 sec) 
Heartbeat CPU 0 instructions: 70000002 cycles: 43393118 heartbeat IPC: 0.701452 cumulative IPC: 0.69796 (Simulation time: 0 hr 29 min 11 sec) 
Heartbeat CPU 2 instructions: 70000002 cycles: 43443383 heartbeat IPC: 0.697293 cumulative IPC: 0.696725 (Simulation time: 0 hr 29 min 12 sec) 
Heartbeat CPU 1 instructions: 80000003 cycles: 57667182 heartbeat IPC: 0.698459 cumulative IPC: 0.698853 (Simulation time: 0 hr 35 min 29 sec) 
Heartbeat CPU 0 instructions: 80000003 cycles: 57792106 heartbeat IPC: 0.694493 cumulative IPC: 0.6968 (Simulation time: 0 hr 35 min 32 sec) 
Heartbeat CPU 3 instructions: 80000003 cycles: 57816445 heartbeat IPC: 0.691693 cumulative IPC: 0.696424 (Simulation time: 0 hr 35 min 33 sec) 
Heartbeat CPU 2 instructions: 80000003 cycles: 57824163 heartbeat IPC: 0.695373 cumulative IPC: 0.696274 (Simulation time: 0 hr 35 min 33 sec) 
Heartbeat CPU 1 instructions: 90000003 cycles: 72020192 heartbeat IPC: 0.696718 cumulative IPC: 0.698318 (Simulation time: 0 hr 41 min 46 sec) 
Heartbeat CPU 3 instructions: 90000003 cycles: 72146362 heartbeat IPC: 0.697841 cumulative IPC: 0.696777 (Simulation time: 0 hr 41 min 48 sec) 
Heartbeat CPU 2 instructions: 90000003 cycles: 72195843 heartbeat IPC: 0.695813 cumulative IPC: 0.696159 (Simulation time: 0 hr 41 min 49 sec) 
Heartbeat CPU 0 instructions: 90000000 cycles: 72218116 heartbeat IPC: 0.693192 cumulative IPC: 0.695895 (Simulation time: 0 hr 41 min 50 sec) 
Heartbeat CPU 1 instructions: 100000002 cycles: 86417006 heartbeat IPC: 0.694598 cumulative IPC: 0.697571 (Simulation time: 0 hr 47 min 35 sec) 
Heartbeat CPU 3 instructions: 100000002 cycles: 86427770 heartbeat IPC: 0.700211 cumulative IPC: 0.697461 (Simulation time: 0 hr 47 min 35 sec) 
Heartbeat CPU 2 instructions: 100000002 cycles: 86466112 heartbeat IPC: 0.700758 cumulative IPC: 0.697074 (Simulation time: 0 hr 47 min 36 sec) 
Heartbeat CPU 0 instructions: 100000002 cycles: 86606655 heartbeat IPC: 0.694998 cumulative IPC: 0.695715 (Simulation time: 0 hr 47 min 39 sec) 
Heartbeat CPU 2 instructions: 110000000 cycles: 100836714 heartbeat IPC: 0.695865 cumulative IPC: 0.696872 (Simulation time: 0 hr 53 min 21 sec) 
Heartbeat CPU 3 instructions: 110000000 cycles: 100858060 heartbeat IPC: 0.692987 cumulative IPC: 0.696712 (Simulation time: 0 hr 53 min 22 sec) 
Heartbeat CPU 1 instructions: 110000000 cycles: 101018270 heartbeat IPC: 0.684872 cumulative IPC: 0.695422 (Simulation time: 0 hr 53 min 26 sec) 
Heartbeat CPU 0 instructions: 110000000 cycles: 101197197 heartbeat IPC: 0.685375 cumulative IPC: 0.69397 (Simulation time: 0 hr 53 min 31 sec) 
Heartbeat CPU 2 instructions: 120000000 cycles: 115469654 heartbeat IPC: 0.68339 cumulative IPC: 0.694913 (Simulation time: 0 hr 59 min 31 sec) 
Heartbeat CPU 3 instructions: 120000000 cycles: 115516828 heartbeat IPC: 0.682186 cumulative IPC: 0.694599 (Simulation time: 0 hr 59 min 32 sec) 
Heartbeat CPU 1 instructions: 120000000 cycles: 115672545 heartbeat IPC: 0.682395 cumulative IPC: 0.69353 (Simulation time: 0 hr 59 min 35 sec) 
Heartbeat CPU 0 instructions: 120000000 cycles: 115905797 heartbeat IPC: 0.679874 cumulative IPC: 0.691921 (Simulation time: 0 hr 59 min 42 sec) 
Heartbeat CPU 3 instructions: 130000002 cycles: 130267436 heartbeat IPC: 0.677938 cumulative IPC: 0.692472 (Simulation time: 1 hr 5 min 48 sec) 
Heartbeat CPU 2 instructions: 130000002 cycles: 130329052 heartbeat IPC: 0.672975 cumulative IPC: 0.692093 (Simulation time: 1 hr 5 min 50 sec) 
Heartbeat CPU 1 instructions: 130000002 cycles: 130361436 heartbeat IPC: 0.680787 cumulative IPC: 0.691911 (Simulation time: 1 hr 5 min 50 sec) 
Heartbeat CPU 0 instructions: 130000002 cycles: 130539236 heartbeat IPC: 0.683366 cumulative IPC: 0.69084 (Simulation time: 1 hr 5 min 54 sec) 
Heartbeat CPU 2 instructions: 140000002 cycles: 144796837 heartbeat IPC: 0.691191 cumulative IPC: 0.691993 (Simulation time: 1 hr 11 min 56 sec) 
Heartbeat CPU 1 instructions: 140000002 cycles: 144906202 heartbeat IPC: 0.687533 cumulative IPC: 0.691422 (Simulation time: 1 hr 11 min 59 sec) 
Heartbeat CPU 3 instructions: 140000002 cycles: 144932931 heartbeat IPC: 0.681873 cumulative IPC: 0.691278 (Simulation time: 1 hr 11 min 59 sec) 
Heartbeat CPU 0 instructions: 140000002 cycles: 145209426 heartbeat IPC: 0.681654 cumulative IPC: 0.689807 (Simulation time: 1 hr 12 min 7 sec) 
Heartbeat CPU 3 instructions: 150000001 cycles: 159442742 heartbeat IPC: 0.689189 cumulative IPC: 0.691068 (Simulation time: 1 hr 18 min 7 sec) 
Heartbeat CPU 1 instructions: 150000001 cycles: 159450624 heartbeat IPC: 0.687549 cumulative IPC: 0.691033 (Simulation time: 1 hr 18 min 7 sec) 
Heartbeat CPU 2 instructions: 150000001 cycles: 159473480 heartbeat IPC: 0.681355 cumulative IPC: 0.690914 (Simulation time: 1 hr 18 min 8 sec) 
Heartbeat CPU 0 instructions: 150000001 cycles: 159946046 heartbeat IPC: 0.678582 cumulative IPC: 0.688668 (Simulation time: 1 hr 18 min 18 sec) 
Heartbeat CPU 2 instructions: 160000001 cycles: 174020611 heartbeat IPC: 0.687421 cumulative IPC: 0.690595 (Simulation time: 1 hr 24 min 9 sec) 
Heartbeat CPU 3 instructions: 160000001 cycles: 174049670 heartbeat IPC: 0.684607 cumulative IPC: 0.690476 (Simulation time: 1 hr 24 min 9 sec) 
Heartbeat CPU 1 instructions: 160000001 cycles: 174106764 heartbeat IPC: 0.682308 cumulative IPC: 0.69023 (Simulation time: 1 hr 24 min 11 sec) 
Heartbeat CPU 0 instructions: 160000001 cycles: 174600590 heartbeat IPC: 0.682382 cumulative IPC: 0.688092 (Simulation time: 1 hr 24 min 24 sec) 
Heartbeat CPU 3 instructions: 170000003 cycles: 188635669 heartbeat IPC: 0.685589 cumulative IPC: 0.690066 (Simulation time: 1 hr 30 min 6 sec) 
Heartbeat CPU 2 instructions: 170000003 cycles: 188774705 heartbeat IPC: 0.677778 cumulative IPC: 0.689508 (Simulation time: 1 hr 30 min 9 sec) 
Heartbeat CPU 1 instructions: 170000003 cycles: 188835828 heartbeat IPC: 0.67893 cumulative IPC: 0.689274 (Simulation time: 1 hr 30 min 11 sec) 
Heartbeat CPU 0 instructions: 170000003 cycles: 189198755 heartbeat IPC: 0.685018 cumulative IPC: 0.687834 (Simulation time: 1 hr 30 min 19 sec) 
Heartbeat CPU 3 instructions: 180000000 cycles: 203376222 heartbeat IPC: 0.6784 cumulative IPC: 0.689154 (Simulation time: 1 hr 36 min 23 sec) 
Heartbeat CPU 2 instructions: 180000000 cycles: 203473672 heartbeat IPC: 0.68032 cumulative IPC: 0.688793 (Simulation time: 1 hr 36 min 25 sec) 
Heartbeat CPU 1 instructions: 180000000 cycles: 203512213 heartbeat IPC: 0.681367 cumulative IPC: 0.68866 (Simulation time: 1 hr 36 min 27 sec) 
Heartbeat CPU 0 instructions: 180000000 cycles: 203824114 heartbeat IPC: 0.683744 cumulative IPC: 0.687518 (Simulation time: 1 hr 36 min 35 sec) 
Heartbeat CPU 3 instructions: 190000000 cycles: 218028870 heartbeat IPC: 0.682471 cumulative IPC: 0.688673 (Simulation time: 1 hr 42 min 2 sec) 
Heartbeat CPU 1 instructions: 190000000 cycles: 218034834 heartbeat IPC: 0.688581 cumulative IPC: 0.688654 (Simulation time: 1 hr 42 min 2 sec) 
Heartbeat CPU 2 instructions: 190000000 cycles: 218192759 heartbeat IPC: 0.67939 cumulative IPC: 0.688112 (Simulation time: 1 hr 42 min 6 sec) 
Heartbeat CPU 0 instructions: 190000000 cycles: 218493240 heartbeat IPC: 0.681704 cumulative IPC: 0.687099 (Simulation time: 1 hr 42 min 14 sec) 
Heartbeat CPU 1 instructions: 200000000 cycles: 232637834 heartbeat IPC: 0.684791 cumulative IPC: 0.688395 (Simulation time: 1 hr 47 min 53 sec) 
Heartbeat CPU 3 instructions: 200000000 cycles: 232669196 heartbeat IPC: 0.683045 cumulative IPC: 0.688294 (Simulation time: 1 hr 47 min 54 sec) 
Heartbeat CPU 2 instructions: 200000000 cycles: 232945166 heartbeat IPC: 0.677855 cumulative IPC: 0.687419 (Simulation time: 1 hr 47 min 59 sec) 
Heartbeat CPU 0 instructions: 200000000 cycles: 233105377 heartbeat IPC: 0.684363 cumulative IPC: 0.686916 (Simulation time: 1 hr 48 min 4 sec) 
Heartbeat CPU 3 instructions: 210000002 cycles: 247294188 heartbeat IPC: 0.683761 cumulative IPC: 0.688009 (Simulation time: 1 hr 53 min 28 sec) 
Heartbeat CPU 1 instructions: 210000002 cycles: 247352142 heartbeat IPC: 0.679611 cumulative IPC: 0.687839 (Simulation time: 1 hr 53 min 29 sec) 
Heartbeat CPU 2 instructions: 210000002 cycles: 247544702 heartbeat IPC: 0.684953 cumulative IPC: 0.687264 (Simulation time: 1 hr 53 min 33 sec) 
Heartbeat CPU 0 instructions: 210000002 cycles: 247819386 heartbeat IPC: 0.679625 cumulative IPC: 0.686456 (Simulation time: 1 hr 53 min 40 sec) 
Heartbeat CPU 3 instructions: 220000000 cycles: 261849400 heartbeat IPC: 0.687039 cumulative IPC: 0.687952 (Simulation time: 1 hr 59 min 31 sec) 
Heartbeat CPU 1 instructions: 220000000 cycles: 261862145 heartbeat IPC: 0.68918 cumulative IPC: 0.687918 (Simulation time: 1 hr 59 min 32 sec) 
Heartbeat CPU 2 instructions: 220000000 cycles: 262144387 heartbeat IPC: 0.684946 cumulative IPC: 0.687128 (Simulation time: 1 hr 59 min 40 sec) 
Heartbeat CPU 0 instructions: 220000000 cycles: 262424570 heartbeat IPC: 0.684688 cumulative IPC: 0.686352 (Simulation time: 1 hr 59 min 48 sec) 
Heartbeat CPU 3 instructions: 230000000 cycles: 276495848 heartbeat IPC: 0.682759 cumulative IPC: 0.687662 (Simulation time: 2 hr 5 min 10 sec) 
Heartbeat CPU 1 instructions: 230000000 cycles: 276601271 heartbeat IPC: 0.678466 cumulative IPC: 0.687386 (Simulation time: 2 hr 5 min 13 sec) 
Heartbeat CPU 2 instructions: 230000000 cycles: 276895764 heartbeat IPC: 0.677903 cumulative IPC: 0.686608 (Simulation time: 2 hr 5 min 21 sec) 
Heartbeat CPU 0 instructions: 230000000 cycles: 277188896 heartbeat IPC: 0.677308 cumulative IPC: 0.685843 (Simulation time: 2 hr 5 min 29 sec) 
Heartbeat CPU 3 instructions: 240000000 cycles: 290994138 heartbeat IPC: 0.689736 cumulative IPC: 0.687771 (Simulation time: 2 hr 11 min 12 sec) 
Heartbeat CPU 1 instructions: 240000000 cycles: 291272750 heartbeat IPC: 0.681595 cumulative IPC: 0.687079 (Simulation time: 2 hr 11 min 19 sec) 
Heartbeat CPU 2 instructions: 240000000 cycles: 291501101 heartbeat IPC: 0.684681 cumulative IPC: 0.686507 (Simulation time: 2 hr 11 min 25 sec) 
Heartbeat CPU 0 instructions: 240000000 cycles: 291886969 heartbeat IPC: 0.680361 cumulative IPC: 0.685552 (Simulation time: 2 hr 11 min 35 sec) 
Heartbeat CPU 3 instructions: 250000001 cycles: 305697690 heartbeat IPC: 0.680108 cumulative IPC: 0.687383 (Simulation time: 2 hr 16 min 45 sec) 
Finished CPU 3 instructions: 200000001 cycles: 290958144 cumulative IPC: 0.687384 (Simulation time: 2 hr 16 min 45 sec) 
Heartbeat CPU 1 instructions: 250000001 cycles: 305948550 heartbeat IPC: 0.681394 cumulative IPC: 0.686792 (Simulation time: 2 hr 16 min 52 sec) 
Finished CPU 1 instructions: 200000001 cycles: 291208853 cumulative IPC: 0.686792 (Simulation time: 2 hr 16 min 52 sec) 
Heartbeat CPU 2 instructions: 250000001 cycles: 306190928 heartbeat IPC: 0.680743 cumulative IPC: 0.686216 (Simulation time: 2 hr 16 min 59 sec) 
Finished CPU 2 instructions: 200000002 cycles: 291451998 cumulative IPC: 0.686219 (Simulation time: 2 hr 16 min 59 sec) 
Heartbeat CPU 0 instructions: 250000001 cycles: 306484979 heartbeat IPC: 0.685025 cumulative IPC: 0.685526 (Simulation time: 2 hr 17 min 7 sec) 
Finished CPU 0 instructions: 200000001 cycles: 291746696 cumulative IPC: 0.685526 (Simulation time: 2 hr 17 min 7 sec) 

ChampSim completed all CPUs

Total Simulation Statistics (not including warmup)

CPU 0 cumulative IPC: 0.685526 instructions: 200000001 cycles: 291746696
ITLB TOTAL     ACCESS:   24846258  HIT:   24846258  MISS:          0  HIT %:        100  MISS %:          0   MPKI: 0
ITLB LOAD      ACCESS:          0  HIT:          0  MISS:          0  HIT %:       -nan  MISS %:       -nan   MPKI: 0
ITLB RFO       ACCESS:          0  HIT:          0  MISS:          0  HIT %:       -nan  MISS %:       -nan   MPKI: 0
ITLB PREFETCH  ACCESS:          0  HIT:          0  MISS:          0  HIT %:       -nan  MISS %:       -nan   MPKI: 0
ITLB WRITEBACK ACCESS:          0  HIT:          0  MISS:          0  HIT %:       -nan  MISS %:       -nan   MPKI: 0
DTLB TOTAL     ACCESS:   42677402  HIT:   42381756  MISS:     295646  HIT %:    99.3073  MISS %:   0.692746   MPKI: 1.47823
DTLB LOAD      ACCESS:          0  HIT:          0  MISS:          0  HIT %:       -nan  MISS %:       -nan   MPKI: 0
DTLB RFO       ACCESS:          0  HIT:          0  MISS:          0  HIT %:       -nan  MISS %:       -nan   MPKI: 0
DTLB PREFETCH  ACCESS:          0  HIT:          0  MISS:          0  HIT %:       -nan  MISS %:       -nan   MPKI: 0
DTLB WRITEBACK ACCESS:          0  HIT:          0  MISS:          0  HIT %:       -nan  MISS %:       -nan   MPKI: 0
STLB TOTAL     ACCESS:    5874310  HIT:    5831697  MISS:      42613  HIT %:    99.2746  MISS %:   0.725413   MPKI: 0.213065
STLB LOAD      ACCESS:          0  HIT:          0  MISS:          0  HIT %:       -nan  MISS %:       -nan   MPKI: 0
STLB RFO       ACCESS:          0  HIT:          0  MISS:          0  HIT %:       -nan  MISS %:       -nan   MPKI: 0
STLB PREFETCH  ACCESS:          0  HIT:          0  MISS:          0  HIT %:       -nan  MISS %:       -nan   MPKI: 0
STLB WRITEBACK ACCESS:          0  HIT:          0  MISS:          0  HIT %:       -nan  MISS %:       -nan   MPKI: 0
L1D TOTAL     ACCESS:   69029524  HIT:   65892230  MISS:    3137294  HIT %:    95.4551  MISS %:    4.54486   MPKI: 15.6865
L1D LOAD      ACCESS:   30650431  HIT:   30031080  MISS:     619351  HIT %:    97.9793  MISS %:    2.02069   MPKI: 3.09675
L1D RFO       ACCESS:   25172094  HIT:   23979747  MISS:    1192347  HIT %:    95.2632  MISS %:    4.73678   MPKI: 5.96173
L1D PREFETCH  ACCESS:   13206999  HIT:   11881403  MISS:    1325596  HIT %:    89.9629  MISS %:    10.0371   MPKI: 6.62798
L1D WRITEBACK ACCESS:          0  HIT:          0  MISS:          0  HIT %:       -nan  MISS %:       -nan   MPKI: 0
L1I TOTAL     ACCESS:   28356275  HIT:   28356275  MISS:          0  HIT %:        100  MISS %:          0   MPKI: 0
L1I LOAD      ACCESS:   28356275  HIT:   28356275  MISS:          0  HIT %:        100  MISS %:          0   MPKI: 0
L1I RFO       ACCESS:          0  HIT:          0  MISS:          0  HIT %:       -nan  MISS %:       -nan   MPKI: 0
L1I PREFETCH  ACCESS:          0  HIT:          0  MISS:          0  HIT %:       -nan  MISS %:       -nan   MPKI: 0
L1I WRITEBACK ACCESS:          0  HIT:          0  MISS:          0  HIT %:       -nan  MISS %:       -nan   MPKI: 0
L2C TOTAL     ACCESS:   11106932  HIT:    8050326  MISS:    3056606  HIT %:    72.4802  MISS %:    27.5198   MPKI: 15.283
L2C LOAD      ACCESS:     583623  HIT:     524002  MISS:      59621  HIT %:    89.7843  MISS %:    10.2157   MPKI: 0.298105
L2C RFO       ACCESS:    1191575  HIT:        810  MISS:    1190765  HIT %:  0.0679773  MISS %:     99.932   MPKI: 5.95382
L2C PREFETCH  ACCESS:    7881724  HIT:    6170573  MISS:    1711151  HIT %:    78.2896  MISS %:    21.7104   MPKI: 8.55575
L2C WRITEBACK ACCESS:    1196700  HIT:    1108464  MISS:      88236  HIT %:    92.6267  MISS %:    7.37328   MPKI: 0.44118
PSCL5 TOTAL     ACCESS:     253210  HIT:     253210  MISS:          0  HIT %:        100  MISS %:          0   MPKI: 0
PSCL5 LOAD      ACCESS:          0  HIT:          0  MISS:          0  HIT %:       -nan  MISS %:       -nan   MPKI: 0
PSCL5 RFO       ACCESS:          0  HIT:          0  MISS:          0  HIT %:       -nan  MISS %:       -nan   MPKI: 0
PSCL5 PREFETCH  ACCESS:          0  HIT:          0  MISS:          0  HIT %:       -nan  MISS %:       -nan   MPKI: 0
PSCL5 WRITEBACK ACCESS:          0  HIT:          0  MISS:          0  HIT %:       -nan  MISS %:       -nan   MPKI: 0
PSCL4 TOTAL     ACCESS:     253210  HIT:     253210  MISS:          0  HIT %:        100  MISS %:          0   MPKI: 0
PSCL4 LOAD      ACCESS:          0  HIT:          0  MISS:          0  HIT %:       -nan  MISS %:       -nan   MPKI: 0
PSCL4 RFO       ACCESS:          0  HIT:          0  MISS:          0  HIT %:       -nan  MISS %:       -nan   MPKI: 0
PSCL4 PREFETCH  ACCESS:          0  HIT:          0  MISS:          0  HIT %:       -nan  MISS %:       -nan   MPKI: 0
PSCL4 WRITEBACK ACCESS:          0  HIT:          0  MISS:          0  HIT %:       -nan  MISS %:       -nan   MPKI: 0
PSCL3 TOTAL     ACCESS:     193480  HIT:     193450  MISS:         30  HIT %:    99.9845  MISS %:  0.0155055   MPKI: 0.00015
PSCL3 LOAD      ACCESS:          0  HIT:          0  MISS:          0  HIT %:       -nan  MISS %:       -nan   MPKI: 0
PSCL3 RFO       ACCESS:          0  HIT:          0  MISS:          0  HIT %:       -nan  MISS %:       -nan   MPKI: 0
PSCL3 PREFETCH  ACCESS:          0  HIT:          0  MISS:          0  HIT %:       -nan  MISS %:       -nan   MPKI: 0
PSCL3 WRITEBACK ACCESS:          0  HIT:          0  MISS:          0  HIT %:       -nan  MISS %:       -nan   MPKI: 0
PSCL2 TOTAL     ACCESS:     253058  HIT:     252973  MISS:         85  HIT %:    99.9664  MISS %:  0.0335891   MPKI: 0.000425
PSCL2 LOAD      ACCESS:          0  HIT:          0  MISS:          0  HIT %:       -nan  MISS %:       -nan   MPKI: 0
PSCL2 RFO       ACCESS:          0  HIT:          0  MISS:          0  HIT %:       -nan  MISS %:       -nan   MPKI: 0
PSCL2 PREFETCH  ACCESS:          0  HIT:          0  MISS:          0  HIT %:       -nan  MISS %:       -nan   MPKI: 0
PSCL2 WRITEBACK ACCESS:          0  HIT:          0  MISS:          0  HIT %:       -nan  MISS %:       -nan   MPKI: 0
LLC TOTAL     ACCESS:    4160438  HIT:    1384779  MISS:    2775659  HIT %:    33.2845  MISS %:    66.7155   MPKI: 13.8783
LLC LOAD      ACCESS:      24884  HIT:       2333  MISS:      22551  HIT %:     9.3755  MISS %:    90.6245   MPKI: 0.112755
LLC RFO       ACCESS:    1190765  HIT:          0  MISS:    1190765  HIT %:          0  MISS %:        100   MPKI: 5.95382
LLC PREFETCH  ACCESS:    1745888  HIT:     232168  MISS:    1513720  HIT %:     13.298  MISS %:     86.702   MPKI: 7.5686
LLC WRITEBACK ACCESS:    1192068  HIT:    1148893  MISS:      43175  HIT %:    96.3781  MISS %:    3.62186   MPKI: 0.215875

RAW hits: 13111347
Loads Generated: 58645967
Loads sent to L1D: 45534619
Stores Generated: 36649033
Stores sent to L1D: 36649062

CPU 1 cumulative IPC: 0.686754 instructions: 200358082 cycles: 291746696
ITLB TOTAL     ACCESS:   24891996  HIT:   24891996  MISS:          0  HIT %:        100  MISS %:          0   MPKI: 0
ITLB LOAD      ACCESS:          0  HIT:          0  MISS:          0  HIT %:       -nan  MISS %:       -nan   MPKI: 0
ITLB RFO       ACCESS:          0  HIT:          0  MISS:          0  HIT %:       -nan  MISS %:       -nan   MPKI: 0
ITLB PREFETCH  ACCESS:          0  HIT:          0  MISS:          0  HIT %:       -nan  MISS %:       -nan   MPKI: 0
ITLB WRITEBACK ACCESS:          0  HIT:          0  MISS:          0  HIT %:       -nan  MISS %:       -nan   MPKI: 0
DTLB TOTAL     ACCESS:   42744333  HIT:   42448327  MISS:     296006  HIT %:    99.3075  MISS %:   0.692503   MPKI: 1.47738
DTLB LOAD      ACCESS:          0  HIT:          0  MISS:          0  HIT %:       -nan  MISS %:       -nan   MPKI: 0
DTLB RFO       ACCESS:          0  HIT:          0  MISS:          0  HIT %:       -nan  MISS %:       -nan   MPKI: 0
DTLB PREFETCH  ACCESS:          0  HIT:          0  MISS:          0  HIT %:       -nan  MISS %:       -nan   MPKI: 0
DTLB WRITEBACK ACCESS:          0  HIT:          0  MISS:          0  HIT %:       -nan  MISS %:       -nan   MPKI: 0
STLB TOTAL     ACCESS:    5863149  HIT:    5820457  MISS:      42692  HIT %:    99.2719  MISS %:   0.728141   MPKI: 0.213079
STLB LOAD      ACCESS:          0  HIT:          0  MISS:          0  HIT %:       -nan  MISS %:       -nan   MPKI: 0
STLB RFO       ACCESS:          0  HIT:          0  MISS:          0  HIT %:       -nan  MISS %:       -nan   MPKI: 0
STLB PREFETCH  ACCESS:          0  HIT:          0  MISS:          0  HIT %:       -nan  MISS %:       -nan   MPKI: 0
STLB WRITEBACK ACCESS:          0  HIT:          0  MISS:          0  HIT %:       -nan  MISS %:       -nan   MPKI: 0
L1D TOTAL     ACCESS:   69056386  HIT:   65913869  MISS:    3142517  HIT %:    95.4493  MISS %:    4.55065   MPKI: 15.6845
L1D LOAD      ACCESS:   30700823  HIT:   30078554  MISS:     622269  HIT %:    97.9731  MISS %:    2.02688   MPKI: 3.10578
L1D RFO       ACCESS:   25168980  HIT:   23974393  MISS:    1194587  HIT %:    95.2537  MISS %:    4.74627   MPKI: 5.96226
L1D PREFETCH  ACCESS:   13186583  HIT:   11860922  MISS:    1325661  HIT %:    89.9469  MISS %:    10.0531   MPKI: 6.61646
L1D WRITEBACK ACCESS:          0  HIT:          0  MISS:          0  HIT %:       -nan  MISS %:       -nan   MPKI: 0
L1I TOTAL     ACCESS:   28407983  HIT:   28407983  MISS:          0  HIT %:        100  MISS %:          0   MPKI: 0
L1I LOAD      ACCESS:   28407983  HIT:   28407983  MISS:          0  HIT %:        100  MISS %:          0   MPKI: 0
L1I RFO       ACCESS:          0  HIT:          0  MISS:          0  HIT %:       -nan  MISS %:       -nan   MPKI: 0
L1I PREFETCH  ACCESS:          0  HIT:          0  MISS:          0  HIT %:       -nan  MISS %:       -nan   MPKI: 0
L1I WRITEBACK ACCESS:          0  HIT:          0  MISS:          0  HIT %:       -nan  MISS %:       -nan   MPKI: 0
L2C TOTAL     ACCESS:   11117171  HIT:    8059103  MISS:    3058068  HIT %:    72.4924  MISS %:    27.5076   MPKI: 15.263
L2C LOAD      ACCESS:     586373  HIT:     526782  MISS:      59591  HIT %:    89.8374  MISS %:    10.1626   MPKI: 0.297422
L2C RFO       ACCESS:    1193741  HIT:        854  MISS:    1192887  HIT %:  0.0715398  MISS %:    99.9285   MPKI: 5.95378
L2C PREFETCH  ACCESS:    7884568  HIT:    6173483  MISS:    1711085  HIT %:    78.2983  MISS %:    21.7017   MPKI: 8.54013
L2C WRITEBACK ACCESS:    1198994  HIT:    1111357  MISS:      87637  HIT %:    92.6908  MISS %:    7.30921   MPKI: 0.437402
PSCL5 TOTAL     ACCESS:     253369  HIT:     253369  MISS:          0  HIT %:        100  MISS %:          0   MPKI: 0
PSCL5 LOAD      ACCESS:          0  HIT:          0  MISS:          0  HIT %:       -nan  MISS %:       -nan   MPKI: 0
PSCL5 RFO       ACCESS:          0  HIT:          0  MISS:          0  HIT %:       -nan  MISS %:       -nan   MPKI: 0
PSCL5 PREFETCH  ACCESS:          0  HIT:          0  MISS:          0  HIT %:       -nan  MISS %:       -nan   MPKI: 0
PSCL5 WRITEBACK ACCESS:          0  HIT:          0  MISS:          0  HIT %:       -nan  MISS %:       -nan   MPKI: 0
PSCL4 TOTAL     ACCESS:     253369  HIT:     253369  MISS:          0  HIT %:        100  MISS %:          0   MPKI: 0
PSCL4 LOAD      ACCESS:          0  HIT:          0  MISS:          0  HIT %:       -nan  MISS %:       -nan   MPKI: 0
PSCL4 RFO       ACCESS:          0  HIT:          0  MISS:          0  HIT %:       -nan  MISS %:       -nan   MPKI: 0
PSCL4 PREFETCH  ACCESS:          0  HIT:          0  MISS:          0  HIT %:       -nan  MISS %:       -nan   MPKI: 0
PSCL4 WRITEBACK ACCESS:          0  HIT:          0  MISS:          0  HIT %:       -nan  MISS %:       -nan   MPKI: 0
PSCL3 TOTAL     ACCESS:     193239  HIT:     193208  MISS:         31  HIT %:     99.984  MISS %:  0.0160423   MPKI: 0.000154723
PSCL3 LOAD      ACCESS:          0  HIT:          0  MISS:          0  HIT %:       -nan  MISS %:       -nan   MPKI: 0
PSCL3 RFO       ACCESS:          0  HIT:          0  MISS:          0  HIT %:       -nan  MISS %:       -nan   MPKI: 0
PSCL3 PREFETCH  ACCESS:          0  HIT:          0  MISS:          0  HIT %:       -nan  MISS %:       -nan   MPKI: 0
PSCL3 WRITEBACK ACCESS:          0  HIT:          0  MISS:          0  HIT %:       -nan  MISS %:       -nan   MPKI: 0
PSCL2 TOTAL     ACCESS:     253173  HIT:     253087  MISS:         86  HIT %:     99.966  MISS %:  0.0339689   MPKI: 0.000429231
PSCL2 LOAD      ACCESS:          0  HIT:          0  MISS:          0  HIT %:       -nan  MISS %:       -nan   MPKI: 0
PSCL2 RFO       ACCESS:          0  HIT:          0  MISS:          0  HIT %:       -nan  MISS %:       -nan   MPKI: 0
PSCL2 PREFETCH  ACCESS:          0  HIT:          0  MISS:          0  HIT %:       -nan  MISS %:       -nan   MPKI: 0
PSCL2 WRITEBACK ACCESS:          0  HIT:          0  MISS:          0  HIT %:       -nan  MISS %:       -nan   MPKI: 0
LLC TOTAL     ACCESS:    4164835  HIT:    1384419  MISS:    2780416  HIT %:    33.2407  MISS %:    66.7593   MPKI: 13.8772
LLC LOAD      ACCESS:      24819  HIT:       2233  MISS:      22586  HIT %:    8.99714  MISS %:    91.0029   MPKI: 0.112728
LLC RFO       ACCESS:    1192887  HIT:          0  MISS:    1192887  HIT %:          0  MISS %:        100   MPKI: 5.95378
LLC PREFETCH  ACCESS:    1745857  HIT:     229632  MISS:    1516225  HIT %:     13.153  MISS %:     86.847   MPKI: 7.56758
LLC WRITEBACK ACCESS:    1194404  HIT:    1151148  MISS:      43256  HIT %:    96.3784  MISS %:    3.62156   MPKI: 0.215893

RAW hits: 13135996
Loads Generated: 58750957
Loads sent to L1D: 45614957
Stores Generated: 36714659
Stores sent to L1D: 36714666

CPU 2 cumulative IPC: 0.686162 instructions: 200185636 cycles: 291746697
ITLB TOTAL     ACCESS:   24871850  HIT:   24871850  MISS:          0  HIT %:        100  MISS %:          0   MPKI: 0
ITLB LOAD      ACCESS:          0  HIT:          0  MISS:          0  HIT %:       -nan  MISS %:       -nan   MPKI: 0
ITLB RFO       ACCESS:          0  HIT:          0  MISS:          0  HIT %:       -nan  MISS %:       -nan   MPKI: 0
ITLB PREFETCH  ACCESS:          0  HIT:          0  MISS:          0  HIT %:       -nan  MISS %:       -nan   MPKI: 0
ITLB WRITEBACK ACCESS:          0  HIT:          0  MISS:          0  HIT %:       -nan  MISS %:       -nan   MPKI: 0
DTLB TOTAL     ACCESS:   42718875  HIT:   42422963  MISS:     295912  HIT %:    99.3073  MISS %:   0.692696   MPKI: 1.47819
DTLB LOAD      ACCESS:          0  HIT:          0  MISS:          0  HIT %:       -nan  MISS %:       -nan   MPKI: 0
DTLB RFO       ACCESS:          0  HIT:          0  MISS:          0  HIT %:       -nan  MISS %:       -nan   MPKI: 0
DTLB PREFETCH  ACCESS:          0  HIT:          0  MISS:          0  HIT %:       -nan  MISS %:       -nan   MPKI: 0
DTLB WRITEBACK ACCESS:          0  HIT:          0  MISS:          0  HIT %:       -nan  MISS %:       -nan   MPKI: 0
STLB TOTAL     ACCESS:    5865862  HIT:    5823203  MISS:      42659  HIT %:    99.2728  MISS %:   0.727242   MPKI: 0.213097
STLB LOAD      ACCESS:          0  HIT:          0  MISS:          0  HIT %:       -nan  MISS %:       -nan   MPKI: 0
STLB RFO       ACCESS:          0  HIT:          0  MISS:          0  HIT %:       -nan  MISS %:       -nan   MPKI: 0
STLB PREFETCH  ACCESS:          0  HIT:          0  MISS:          0  HIT %:       -nan  MISS %:       -nan   MPKI: 0
STLB WRITEBACK ACCESS:          0  HIT:          0  MISS:          0  HIT %:       -nan  MISS %:       -nan   MPKI: 0
L1D TOTAL     ACCESS:   68993216  HIT:   65853139  MISS:    3140077  HIT %:    95.4487  MISS %:    4.55128   MPKI: 15.6858
L1D LOAD      ACCESS:   30678663  HIT:   30054229  MISS:     624434  HIT %:    97.9646  MISS %:     2.0354   MPKI: 3.11927
L1D RFO       ACCESS:   25171163  HIT:   23977854  MISS:    1193309  HIT %:    95.2592  MISS %:    4.74078   MPKI: 5.96101
L1D PREFETCH  ACCESS:   13143390  HIT:   11821056  MISS:    1322334  HIT %:    89.9392  MISS %:    10.0608   MPKI: 6.60554
L1D WRITEBACK ACCESS:          0  HIT:          0  MISS:          0  HIT %:       -nan  MISS %:       -nan   MPKI: 0
L1I TOTAL     ACCESS:   28384362  HIT:   28384362  MISS:          0  HIT %:        100  MISS %:          0   MPKI: 0
L1I LOAD      ACCESS:   28384362  HIT:   28384362  MISS:          0  HIT %:        100  MISS %:          0   MPKI: 0
L1I RFO       ACCESS:          0  HIT:          0  MISS:          0  HIT %:       -nan  MISS %:       -nan   MPKI: 0
L1I PREFETCH  ACCESS:          0  HIT:          0  MISS:          0  HIT %:       -nan  MISS %:       -nan   MPKI: 0
L1I WRITEBACK ACCESS:          0  HIT:          0  MISS:          0  HIT %:       -nan  MISS %:       -nan   MPKI: 0
L2C TOTAL     ACCESS:   11139290  HIT:    8081396  MISS:    3057894  HIT %:    72.5486  MISS %:    27.4514   MPKI: 15.2753
L2C LOAD      ACCESS:     588781  HIT:     529093  MISS:      59688  HIT %:    89.8624  MISS %:    10.1376   MPKI: 0.298163
L2C RFO       ACCESS:    1192612  HIT:        746  MISS:    1191866  HIT %:  0.0625518  MISS %:    99.9374   MPKI: 5.9538
L2C PREFETCH  ACCESS:    7906286  HIT:    6194697  MISS:    1711589  HIT %:    78.3515  MISS %:    21.6485   MPKI: 8.55001
L2C WRITEBACK ACCESS:    1197691  HIT:    1109828  MISS:      87863  HIT %:     92.664  MISS %:    7.33603   MPKI: 0.438908
PSCL5 TOTAL     ACCESS:     253797  HIT:     253797  MISS:          0  HIT %:        100  MISS %:          0   MPKI: 0
PSCL5 LOAD      ACCESS:          0  HIT:          0  MISS:          0  HIT %:       -nan  MISS %:       -nan   MPKI: 0
PSCL5 RFO       ACCESS:          0  HIT:          0  MISS:          0  HIT %:       -nan  MISS %:       -nan   MPKI: 0
PSCL5 PREFETCH  ACCESS:          0  HIT:          0  MISS:          0  HIT %:       -nan  MISS %:       -nan   MPKI: 0
PSCL5 WRITEBACK ACCESS:          0  HIT:          0  MISS:          0  HIT %:       -nan  MISS %:       -nan   MPKI: 0
PSCL4 TOTAL     ACCESS:     253797  HIT:     253797  MISS:          0  HIT %:        100  MISS %:          0   MPKI: 0
PSCL4 LOAD      ACCESS:          0  HIT:          0  MISS:          0  HIT %:       -nan  MISS %:       -nan   MPKI: 0
PSCL4 RFO       ACCESS:          0  HIT:          0  MISS:          0  HIT %:       -nan  MISS %:       -nan   MPKI: 0
PSCL4 PREFETCH  ACCESS:          0  HIT:          0  MISS:          0  HIT %:       -nan  MISS %:       -nan   MPKI: 0
PSCL4 WRITEBACK ACCESS:          0  HIT:          0  MISS:          0  HIT %:       -nan  MISS %:       -nan   MPKI: 0
PSCL3 TOTAL     ACCESS:     193541  HIT:     193511  MISS:         30  HIT %:    99.9845  MISS %:  0.0155006   MPKI: 0.000149861
PSCL3 LOAD      ACCESS:          0  HIT:          0  MISS:          0  HIT %:       -nan  MISS %:       -nan   MPKI: 0
PSCL3 RFO       ACCESS:          0  HIT:          0  MISS:          0  HIT %:       -nan  MISS %:       -nan   MPKI: 0
PSCL3 PREFETCH  ACCESS:          0  HIT:          0  MISS:          0  HIT %:       -nan  MISS %:       -nan   MPKI: 0
PSCL3 WRITEBACK ACCESS:          0  HIT:          0  MISS:          0  HIT %:       -nan  MISS %:       -nan   MPKI: 0
PSCL2 TOTAL     ACCESS:     253624  HIT:     253539  MISS:         85  HIT %:    99.9665  MISS %:  0.0335142   MPKI: 0.000424606
PSCL2 LOAD      ACCESS:          0  HIT:          0  MISS:          0  HIT %:       -nan  MISS %:       -nan   MPKI: 0
PSCL2 RFO       ACCESS:          0  HIT:          0  MISS:          0  HIT %:       -nan  MISS %:       -nan   MPKI: 0
PSCL2 PREFETCH  ACCESS:          0  HIT:          0  MISS:          0  HIT %:       -nan  MISS %:       -nan   MPKI: 0
PSCL2 WRITEBACK ACCESS:          0  HIT:          0  MISS:          0  HIT %:       -nan  MISS %:       -nan   MPKI: 0
LLC TOTAL     ACCESS:    4163223  HIT:    1384898  MISS:    2778325  HIT %:     33.265  MISS %:     66.735   MPKI: 13.8787
LLC LOAD      ACCESS:      24785  HIT:       2208  MISS:      22577  HIT %:    8.90861  MISS %:    91.0914   MPKI: 0.11278
LLC RFO       ACCESS:    1191866  HIT:          0  MISS:    1191866  HIT %:          0  MISS %:        100   MPKI: 5.9538
LLC PREFETCH  ACCESS:    1746492  HIT:     231230  MISS:    1515262  HIT %:    13.2397  MISS %:    86.7603   MPKI: 7.56928
LLC WRITEBACK ACCESS:    1193192  HIT:    1150033  MISS:      43159  HIT %:    96.3829  MISS %:     3.6171   MPKI: 0.215595

RAW hits: 13124577
Loads Generated: 58700400
Loads sent to L1D: 45575810
Stores Generated: 36683076
Stores sent to L1D: 36683077

CPU 3 cumulative IPC: 0.687357 instructions: 200534167 cycles: 291746697
ITLB TOTAL     ACCESS:   24914363  HIT:   24914363  MISS:          0  HIT %:        100  MISS %:          0   MPKI: 0
ITLB LOAD      ACCESS:          0  HIT:          0  MISS:          0  HIT %:       -nan  MISS %:       -nan   MPKI: 0
ITLB RFO       ACCESS:          0  HIT:          0  MISS:          0  HIT %:       -nan  MISS %:       -nan   MPKI: 0
ITLB PREFETCH  ACCESS:          0  HIT:          0  MISS:          0  HIT %:       -nan  MISS %:       -nan   MPKI: 0
ITLB WRITEBACK ACCESS:          0  HIT:          0  MISS:          0  HIT %:       -nan  MISS %:       -nan   MPKI: 0
DTLB TOTAL     ACCESS:   42778641  HIT:   42482500  MISS:     296141  HIT %:    99.3077  MISS %:   0.692264   MPKI: 1.47676
DTLB LOAD      ACCESS:          0  HIT:          0  MISS:          0  HIT %:       -nan  MISS %:       -nan   MPKI: 0
DTLB RFO       ACCESS:          0  HIT:          0  MISS:          0  HIT %:       -nan  MISS %:       -nan   MPKI: 0
DTLB PREFETCH  ACCESS:          0  HIT:          0  MISS:          0  HIT %:       -nan  MISS %:       -nan   MPKI: 0
DTLB WRITEBACK ACCESS:          0  HIT:          0  MISS:          0  HIT %:       -nan  MISS %:       -nan   MPKI: 0
STLB TOTAL     ACCESS:    5872967  HIT:    5830244  MISS:      42723  HIT %:    99.2725  MISS %:   0.727452   MPKI: 0.213046
STLB LOAD      ACCESS:          0  HIT:          0  MISS:          0  HIT %:       -nan  MISS %:       -nan   MPKI: 0
STLB RFO       ACCESS:          0  HIT:          0  MISS:          0  HIT %:       -nan  MISS %:       -nan   MPKI: 0
STLB PREFETCH  ACCESS:          0  HIT:          0  MISS:          0  HIT %:       -nan  MISS %:       -nan   MPKI: 0
STLB WRITEBACK ACCESS:          0  HIT:          0  MISS:          0  HIT %:       -nan  MISS %:       -nan   MPKI: 0
L1D TOTAL     ACCESS:   69080289  HIT:   65935751  MISS:    3144538  HIT %:     95.448  MISS %:      4.552   MPKI: 15.6808
L1D LOAD      ACCESS:   30727969  HIT:   30104756  MISS:     623213  HIT %:    97.9718  MISS %:    2.02816   MPKI: 3.10776
L1D RFO       ACCESS:   25179126  HIT:   23983609  MISS:    1195517  HIT %:     95.252  MISS %:    4.74805   MPKI: 5.96166
L1D PREFETCH  ACCESS:   13173194  HIT:   11847386  MISS:    1325808  HIT %:    89.9356  MISS %:    10.0644   MPKI: 6.61138
L1D WRITEBACK ACCESS:          0  HIT:          0  MISS:          0  HIT %:       -nan  MISS %:       -nan   MPKI: 0
L1I TOTAL     ACCESS:   28433735  HIT:   28433735  MISS:          0  HIT %:        100  MISS %:          0   MPKI: 0
L1I LOAD      ACCESS:   28433735  HIT:   28433735  MISS:          0  HIT %:        100  MISS %:          0   MPKI: 0
L1I RFO       ACCESS:          0  HIT:          0  MISS:          0  HIT %:       -nan  MISS %:       -nan   MPKI: 0
L1I PREFETCH  ACCESS:          0  HIT:          0  MISS:          0  HIT %:       -nan  MISS %:       -nan   MPKI: 0
L1I WRITEBACK ACCESS:          0  HIT:          0  MISS:          0  HIT %:       -nan  MISS %:       -nan   MPKI: 0
L2C TOTAL     ACCESS:   11149395  HIT:    8084466  MISS:    3064929  HIT %:    72.5104  MISS %:    27.4896   MPKI: 15.2838
L2C LOAD      ACCESS:     587469  HIT:     528044  MISS:      59425  HIT %:    89.8846  MISS %:    10.1154   MPKI: 0.296334
L2C RFO       ACCESS:    1194733  HIT:        801  MISS:    1193932  HIT %:  0.0670443  MISS %:     99.933   MPKI: 5.95376
L2C PREFETCH  ACCESS:    7913430  HIT:    6198266  MISS:    1715164  HIT %:    78.3259  MISS %:    21.6741   MPKI: 8.55298
L2C WRITEBACK ACCESS:    1199886  HIT:    1110302  MISS:      89584  HIT %:     92.534  MISS %:    7.46604   MPKI: 0.446727
PSCL5 TOTAL     ACCESS:     253769  HIT:     253769  MISS:          0  HIT %:        100  MISS %:          0   MPKI: 0
PSCL5 LOAD      ACCESS:          0  HIT:          0  MISS:          0  HIT %:       -nan  MISS %:       -nan   MPKI: 0
PSCL5 RFO       ACCESS:          0  HIT:          0  MISS:          0  HIT %:       -nan  MISS %:       -nan   MPKI: 0
PSCL5 PREFETCH  ACCESS:          0  HIT:          0  MISS:          0  HIT %:       -nan  MISS %:       -nan   MPKI: 0
PSCL5 WRITEBACK ACCESS:          0  HIT:          0  MISS:          0  HIT %:       -nan  MISS %:       -nan   MPKI: 0
PSCL4 TOTAL     ACCESS:     253769  HIT:     253769  MISS:          0  HIT %:        100  MISS %:          0   MPKI: 0
PSCL4 LOAD      ACCESS:          0  HIT:          0  MISS:          0  HIT %:       -nan  MISS %:       -nan   MPKI: 0
PSCL4 RFO       ACCESS:          0  HIT:          0  MISS:          0  HIT %:       -nan  MISS %:       -nan   MPKI: 0
PSCL4 PREFETCH  ACCESS:          0  HIT:          0  MISS:          0  HIT %:       -nan  MISS %:       -nan   MPKI: 0
PSCL4 WRITEBACK ACCESS:          0  HIT:          0  MISS:          0  HIT %:       -nan  MISS %:       -nan   MPKI: 0
PSCL3 TOTAL     ACCESS:     200463  HIT:     200433  MISS:         30  HIT %:     99.985  MISS %:  0.0149654   MPKI: 0.0001496
PSCL3 LOAD      ACCESS:          0  HIT:          0  MISS:          0  HIT %:       -nan  MISS %:       -nan   MPKI: 0
PSCL3 RFO       ACCESS:          0  HIT:          0  MISS:          0  HIT %:       -nan  MISS %:       -nan   MPKI: 0
PSCL3 PREFETCH  ACCESS:          0  HIT:          0  MISS:          0  HIT %:       -nan  MISS %:       -nan   MPKI: 0
PSCL3 WRITEBACK ACCESS:          0  HIT:          0  MISS:          0  HIT %:       -nan  MISS %:       -nan   MPKI: 0
PSCL2 TOTAL     ACCESS:     253615  HIT:     253530  MISS:         85  HIT %:    99.9665  MISS %:  0.0335154   MPKI: 0.000423868
PSCL2 LOAD      ACCESS:          0  HIT:          0  MISS:          0  HIT %:       -nan  MISS %:       -nan   MPKI: 0
PSCL2 RFO       ACCESS:          0  HIT:          0  MISS:          0  HIT %:       -nan  MISS %:       -nan   MPKI: 0
PSCL2 PREFETCH  ACCESS:          0  HIT:          0  MISS:          0  HIT %:       -nan  MISS %:       -nan   MPKI: 0
PSCL2 WRITEBACK ACCESS:          0  HIT:          0  MISS:          0  HIT %:       -nan  MISS %:       -nan   MPKI: 0
LLC TOTAL     ACCESS:    4170749  HIT:    1387604  MISS:    2783145  HIT %:    33.2699  MISS %:    66.7301   MPKI: 13.8787
LLC LOAD      ACCESS:      25010  HIT:       2260  MISS:      22750  HIT %:    9.03639  MISS %:    90.9636   MPKI: 0.113447
LLC RFO       ACCESS:    1193932  HIT:          0  MISS:    1193932  HIT %:          0  MISS %:        100   MPKI: 5.95376
LLC PREFETCH  ACCESS:    1749579  HIT:     231907  MISS:    1517672  HIT %:     13.255  MISS %:     86.745   MPKI: 7.56815
LLC WRITEBACK ACCESS:    1195404  HIT:    1152074  MISS:      43330  HIT %:    96.3753  MISS %:    3.62472   MPKI: 0.216073

RAW hits: 13147348
Loads Generated: 58802577
Loads sent to L1D: 45655229
Stores Generated: 36746911
Stores sent to L1D: 36746940

Region of Interest Statistics

CPU 0 cumulative IPC: 0.685526 instructions: 200000001 cycles: 291746696
ITLB TOTAL     ACCESS:   24846258  HIT:   24846258  MISS:          0  HIT %:        100  MISS %:          0   MPKI: 0
ITLB LOAD TRANSLATION ACCESS:   24846258  HIT:   24846258  MISS:          0  HIT %:        100  MISS %:          0   MPKI: 0
ITLB PREFETCH  REQUESTED:          0  ISSUED:          0  USEFUL:          0  USELESS:          0
ITLB USEFUL LOAD PREFETCHES:          0 PREFETCH ISSUED TO LOWER LEVEL:          0  ACCURACY: -nan
ITLB TIMELY PREFETCHES:          0 LATE PREFETCHES: 0 DROPPED PREFETCHES: 0
ITLB PREFETCHES SAME FILL-ORIGIN LEVEL: 0 DIFFERENT FILL-ORIGIN LEVEL: 0
ITLB AVERAGE MISS LATENCY: -nan cycles
ITLB RQ	ACCESS:   28356276	FORWARD:          0	MERGED:    3510018	TO_CACHE:   24846258

DTLB TOTAL     ACCESS:   42677402  HIT:   42381756  MISS:     295646  HIT %:    99.3073  MISS %:   0.692746   MPKI: 1.47823
DTLB LOAD TRANSLATION ACCESS:   42677402  HIT:   42381756  MISS:     295646  HIT %:    99.3073  MISS %:   0.692746   MPKI: 1.47823
DTLB PREFETCH  REQUESTED:          0  ISSUED:          0  USEFUL:          0  USELESS:          0
DTLB USEFUL LOAD PREFETCHES:          0 PREFETCH ISSUED TO LOWER LEVEL:          0  ACCURACY: -nan
DTLB TIMELY PREFETCHES:          0 LATE PREFETCHES: 0 DROPPED PREFETCHES: 0
DTLB PREFETCHES SAME FILL-ORIGIN LEVEL: 0 DIFFERENT FILL-ORIGIN LEVEL: 0
DTLB AVERAGE MISS LATENCY: 152.25 cycles
DTLB RQ	ACCESS:   63017683	FORWARD:          0	MERGED:   20256823	TO_CACHE:   42760860

STLB TOTAL     ACCESS:    5874310  HIT:    5831697  MISS:      42613  HIT %:    99.2746  MISS %:   0.725413   MPKI: 0.213065
STLB LOAD TRANSLATION ACCESS:     295646  HIT:     257659  MISS:      37987  HIT %:    87.1512  MISS %:    12.8488   MPKI: 0.189935
STLB TRANSLATION FROM L1D PREFETCHER ACCESS:    5578664  HIT:    5574038  MISS:       4626  HIT %:    99.9171  MISS %:  0.0829231   MPKI: 0.02313
STLB PREFETCH  REQUESTED:          0  ISSUED:          0  USEFUL:       4626  USELESS:          0
STLB USEFUL LOAD PREFETCHES:       4626 PREFETCH ISSUED TO LOWER LEVEL:          0  ACCURACY: inf
STLB TIMELY PREFETCHES:       4626 LATE PREFETCHES: 919 DROPPED PREFETCHES: 209696
STLB PREFETCHES SAME FILL-ORIGIN LEVEL: 0 DIFFERENT FILL-ORIGIN LEVEL: 0
STLB AVERAGE MISS LATENCY: 1022.83 cycles
STLB RQ	ACCESS:   24608460	FORWARD:          0	MERGED:   18522893	TO_CACHE:    6085567

STLB Hit, L1D data hit: 0
STLB Hit, L2C data hit: 0
STLB Hit, LLC data hit: 0
STLB Hit, LLC data miss: 0
STLB STLB hints to L2: 0
L1D TOTAL     ACCESS:   69029524  HIT:   65892230  MISS:    3137294  HIT %:    95.4551  MISS %:    4.54486   MPKI: 15.6865
L1D LOAD      ACCESS:   30650431  HIT:   30031080  MISS:     619351  HIT %:    97.9793  MISS %:    2.02069   MPKI: 3.09675
L1D RFO       ACCESS:   25172094  HIT:   23979747  MISS:    1192347  HIT %:    95.2632  MISS %:    4.73678   MPKI: 5.96173
L1D PREFETCH  ACCESS:   13206999  HIT:   11881403  MISS:    1325596  HIT %:    89.9629  MISS %:    10.0371   MPKI: 6.62798
L1D PREFETCH  REQUESTED:  130097134  ISSUED:   48883788  USEFUL:    1324002  USELESS:       1603
L1D USEFUL LOAD PREFETCHES:    1324002 PREFETCH ISSUED TO LOWER LEVEL:   39873750  ACCURACY: 3.32049
L1D TIMELY PREFETCHES:    1324002 LATE PREFETCHES: 35711 DROPPED PREFETCHES: 684475
L1D PREFETCHES SAME FILL-ORIGIN LEVEL: 2000810 DIFFERENT FILL-ORIGIN LEVEL: 37872940
L1D AVERAGE MISS LATENCY: 1153.57 cycles
L1D RQ	ACCESS:   45534619	FORWARD:          0	MERGED:   12292572	TO_CACHE:   30675980
L1D WQ	ACCESS:   36649062	FORWARD:    2566067	MERGED:    4307359	TO_CACHE:   32341703
L1D PQ	ACCESS:   24570975	FORWARD:          0	MERGED:     258162	TO_CACHE:   24312813

L1D UNIQUE REGIONS ACCESSED: 0
L1D REGIONS CONFLICTS: 0
L1D Cross Page Prefetch Requests: 1853319
L1D Same Page Prefetch Requests: 35222925
L1D ROI Sum of L1D PQ occupancy: 2618069905
L1D PREFETCHES PUSHED FROM L2C: 0
L1I TOTAL     ACCESS:   28356275  HIT:   28356275  MISS:          0  HIT %:        100  MISS %:          0   MPKI: 0
L1I LOAD      ACCESS:   28356275  HIT:   28356275  MISS:          0  HIT %:        100  MISS %:          0   MPKI: 0
L1I PREFETCH  REQUESTED:          0  ISSUED:          0  USEFUL:          0  USELESS:          0
L1I USEFUL LOAD PREFETCHES:          0 PREFETCH ISSUED TO LOWER LEVEL:          0  ACCURACY: -nan
L1I TIMELY PREFETCHES:          0 LATE PREFETCHES: 0 DROPPED PREFETCHES: 0
L1I PREFETCHES SAME FILL-ORIGIN LEVEL: 0 DIFFERENT FILL-ORIGIN LEVEL: 0
L1I AVERAGE MISS LATENCY: -nan cycles
L1I RQ	ACCESS:   42011383	FORWARD:          0	MERGED:   13655107	TO_CACHE:   28356276

BTB TOTAL     ACCESS:    1687998  HIT:    1687995  MISS:          3  HIT %:    99.9998  MISS %: 0.000177725   MPKI: 1.5e-05
BTB BRANCH_DIRECT_JUMP	ACCESS:          0  HIT:          0  MISS:          0
BTB BRANCH_INDIRECT	ACCESS:          0  HIT:          0  MISS:          0
BTB BRANCH_CONDITIONAL	ACCESS:    1687998  HIT:    1687995  MISS:          3
BTB BRANCH_DIRECT_CALL	ACCESS:          0  HIT:          0  MISS:          0
BTB BRANCH_INDIRECT_CALL	ACCESS:          0  HIT:          0  MISS:          0
BTB BRANCH_RETURN	ACCESS:          0  HIT:          0  MISS:          0
BTB BRANCH_OTHER ACCESS:          0  HIT:          0  MISS:          0

L2C TOTAL     ACCESS:   11106932  HIT:    8050326  MISS:    3056606  HIT %:    72.4802  MISS %:    27.5198   MPKI: 15.283
L2C LOAD      ACCESS:     583623  HIT:     524002  MISS:      59621  HIT %:    89.7843  MISS %:    10.2157   MPKI: 0.298105
L2C DATA LOAD MPKI: 0.298105
L2C INSTRUCTION LOAD MPKI: 0
L2C RFO       ACCESS:    1191575  HIT:        810  MISS:    1190765  HIT %:  0.0679773  MISS %:     99.932   MPKI: 5.95382
L2C PREFETCH  ACCESS:    7881724  HIT:    6170573  MISS:    1711151  HIT %:    78.2896  MISS %:    21.7104   MPKI: 8.55575
L2C DATA PREFETCH MPKI: 8.55575
L2C INSTRUCTION PREFETCH MPKI: 0
L2C WRITEBACK ACCESS:    1196700  HIT:    1108464  MISS:      88236  HIT %:    92.6267  MISS %:    7.37328   MPKI: 0.44118
L2C LOAD TRANSLATION ACCESS:      38005  HIT:      34093  MISS:       3912  HIT %:    89.7066  MISS %:    10.2934   MPKI: 0.01956
L2C TRANSLATION FROM L1D PREFETCHER ACCESS:     215305  HIT:     212384  MISS:       2921  HIT %:    98.6433  MISS %:    1.35668   MPKI: 0.014605
L2C PREFETCH  REQUESTED:          0  ISSUED:          0  USEFUL:     491421  USELESS:    1222102
L2C USEFUL LOAD PREFETCHES:     491421 PREFETCH ISSUED TO LOWER LEVEL:    1745910  ACCURACY: 28.147
L2C TIMELY PREFETCHES:     491421 LATE PREFETCHES: 34737 DROPPED PREFETCHES: 0
L2C PREFETCHES SAME FILL-ORIGIN LEVEL: 1514701 DIFFERENT FILL-ORIGIN LEVEL: 0
L2C AVERAGE MISS LATENCY: 2299.09 cycles
L2C RQ	ACCESS:    2029302	FORWARD:          0	MERGED:          0	TO_CACHE:    2028513
L2C WQ	ACCESS:    1196700	FORWARD:        789	MERGED:          0	TO_CACHE:    1196700
L2C PQ	ACCESS:   10739267	FORWARD:          0	MERGED:     106698	TO_CACHE:   10632569

L2C Instructions Evicting Data 0
L2C Translations Evicting Data 6795
L2C Data Evicting Data 2954972
L2C Instructions Evicting Instructions 0
L2C Translations Evicting Instructions 0
L2C Data Evicting Instructions 0
L2C Instructions Evicting Translations 0
L2C Translations Evicting Translations 38
L2C Data Evicting Translations 6565
L2C Dense regions hint from L2: 0
PSCL5 TOTAL     ACCESS:     253210  HIT:     253210  MISS:          0  HIT %:        100  MISS %:          0   MPKI: 0
PSCL5 LOAD TRANSLATION ACCESS:      37969  HIT:      37969  MISS:          0  HIT %:        100  MISS %:          0   MPKI: 0
PSCL5 TRANSLATION FROM L1D PREFETCHER ACCESS:     215241  HIT:     215241  MISS:          0  HIT %:        100  MISS %:          0   MPKI: 0
PSCL5 PREFETCH  REQUESTED:          0  ISSUED:          0  USEFUL:          0  USELESS:          0
PSCL5 USEFUL LOAD PREFETCHES:          0 PREFETCH ISSUED TO LOWER LEVEL:          0  ACCURACY: -nan
PSCL5 TIMELY PREFETCHES:          0 LATE PREFETCHES: 0 DROPPED PREFETCHES: 0
PSCL5 PREFETCHES SAME FILL-ORIGIN LEVEL: 0 DIFFERENT FILL-ORIGIN LEVEL: 0

PSCL4 TOTAL     ACCESS:     253210  HIT:     253210  MISS:          0  HIT %:        100  MISS %:          0   MPKI: 0
PSCL4 LOAD TRANSLATION ACCESS:      37969  HIT:      37969  MISS:          0  HIT %:        100  MISS %:          0   MPKI: 0
PSCL4 TRANSLATION FROM L1D PREFETCHER ACCESS:     215241  HIT:     215241  MISS:          0  HIT %:        100  MISS %:          0   MPKI: 0
PSCL4 PREFETCH  REQUESTED:          0  ISSUED:          0  USEFUL:          0  USELESS:          0
PSCL4 USEFUL LOAD PREFETCHES:          0 PREFETCH ISSUED TO LOWER LEVEL:          0  ACCURACY: -nan
PSCL4 TIMELY PREFETCHES:          0 LATE PREFETCHES: 0 DROPPED PREFETCHES: 0
PSCL4 PREFETCHES SAME FILL-ORIGIN LEVEL: 0 DIFFERENT FILL-ORIGIN LEVEL: 0

PSCL3 TOTAL     ACCESS:     193480  HIT:     193450  MISS:         30  HIT %:    99.9845  MISS %:  0.0155055   MPKI: 0.00015
PSCL3 LOAD TRANSLATION ACCESS:      29753  HIT:      29723  MISS:         30  HIT %:    99.8992  MISS %:    0.10083   MPKI: 0.00015
PSCL3 TRANSLATION FROM L1D PREFETCHER ACCESS:     163727  HIT:     163727  MISS:          0  HIT %:        100  MISS %:          0   MPKI: 0
PSCL3 PREFETCH  REQUESTED:          0  ISSUED:          0  USEFUL:          0  USELESS:          0
PSCL3 USEFUL LOAD PREFETCHES:          0 PREFETCH ISSUED TO LOWER LEVEL:          0  ACCURACY: -nan
PSCL3 TIMELY PREFETCHES:          0 LATE PREFETCHES: 0 DROPPED PREFETCHES: 0
PSCL3 PREFETCHES SAME FILL-ORIGIN LEVEL: 0 DIFFERENT FILL-ORIGIN LEVEL: 0

PSCL2 TOTAL     ACCESS:     253058  HIT:     252973  MISS:         85  HIT %:    99.9664  MISS %:  0.0335891   MPKI: 0.000425
PSCL2 LOAD TRANSLATION ACCESS:      37973  HIT:      37888  MISS:         85  HIT %:    99.7762  MISS %:   0.223843   MPKI: 0.000425
PSCL2 TRANSLATION FROM L1D PREFETCHER ACCESS:     215085  HIT:     215085  MISS:          0  HIT %:        100  MISS %:          0   MPKI: 0
PSCL2 PREFETCH  REQUESTED:          0  ISSUED:          0  USEFUL:          0  USELESS:          0
PSCL2 USEFUL LOAD PREFETCHES:          0 PREFETCH ISSUED TO LOWER LEVEL:          0  ACCURACY: -nan
PSCL2 TIMELY PREFETCHES:          0 LATE PREFETCHES: 0 DROPPED PREFETCHES: 0
PSCL2 PREFETCHES SAME FILL-ORIGIN LEVEL: 0 DIFFERENT FILL-ORIGIN LEVEL: 0

LLC TOTAL     ACCESS:    4160438  HIT:    1384779  MISS:    2775659  HIT %:    33.2845  MISS %:    66.7155   MPKI: 13.8783
LLC LOAD      ACCESS:      24884  HIT:       2333  MISS:      22551  HIT %:     9.3755  MISS %:    90.6245   MPKI: 0.112755
LLC RFO       ACCESS:    1190765  HIT:          0  MISS:    1190765  HIT %:          0  MISS %:        100   MPKI: 5.95382
LLC PREFETCH  ACCESS:    1745888  HIT:     232168  MISS:    1513720  HIT %:     13.298  MISS %:     86.702   MPKI: 7.5686
LLC WRITEBACK ACCESS:    1192068  HIT:    1148893  MISS:      43175  HIT %:    96.3781  MISS %:    3.62186   MPKI: 0.215875
LLC LOAD TRANSLATION ACCESS:       3912  HIT:        851  MISS:       3061  HIT %:    21.7536  MISS %:    78.2464   MPKI: 0.015305
LLC TRANSLATION FROM L1D PREFETCHER ACCESS:       2921  HIT:        534  MISS:       2387  HIT %:    18.2814  MISS %:    81.7186   MPKI: 0.011935
LLC PREFETCH  REQUESTED:          0  ISSUED:          0  USEFUL:       3050  USELESS:    6068705
LLC USEFUL LOAD PREFETCHES:       3050 PREFETCH ISSUED TO LOWER LEVEL: 1082870380  ACCURACY: 0.000281659
LLC TIMELY PREFETCHES:       3050 LATE PREFETCHES: 0 DROPPED PREFETCHES: 0
LLC PREFETCHES SAME FILL-ORIGIN LEVEL: 0 DIFFERENT FILL-ORIGIN LEVEL: 0
LLC AVERAGE MISS LATENCY: 6738.55 cycles
LLC RQ	ACCESS:    4896396	FORWARD:          0	MERGED:          0	TO_CACHE:    4896396
LLC WQ	ACCESS:    4775068	FORWARD:          0	MERGED:          0	TO_CACHE:    4775068
LLC PQ	ACCESS:    6987893	FORWARD:          0	MERGED:          0	TO_CACHE:    6987893

LLC Dense regions hint to LLC: 0

RAW hits: 13111347
Loads Generated: 58645967
Loads sent to L1D: 45534619
Stores Generated: 36649033
Stores sent to L1D: 36649062
Major fault: 0 Minor fault: 48769
Allocated PAGES: 195285

CPU 1 cumulative IPC: 0.686792 instructions: 200000001 cycles: 291208853
ITLB TOTAL     ACCESS:   24847510  HIT:   24847510  MISS:          0  HIT %:        100  MISS %:          0   MPKI: 0
ITLB LOAD TRANSLATION ACCESS:   24847510  HIT:   24847510  MISS:          0  HIT %:        100  MISS %:          0   MPKI: 0
ITLB PREFETCH  REQUESTED:          0  ISSUED:          0  USEFUL:          0  USELESS:          0
ITLB USEFUL LOAD PREFETCHES:          0 PREFETCH ISSUED TO LOWER LEVEL:          0  ACCURACY: -nan
ITLB TIMELY PREFETCHES:          0 LATE PREFETCHES: 0 DROPPED PREFETCHES: 0
ITLB PREFETCHES SAME FILL-ORIGIN LEVEL: 0 DIFFERENT FILL-ORIGIN LEVEL: 0
ITLB AVERAGE MISS LATENCY: -nan cycles
ITLB RQ	ACCESS:   28407982	FORWARD:          0	MERGED:    3515986	TO_CACHE:   24891996

DTLB TOTAL     ACCESS:   42668291  HIT:   42372662  MISS:     295629  HIT %:    99.3071  MISS %:   0.692854   MPKI: 1.47814
DTLB LOAD TRANSLATION ACCESS:   42668291  HIT:   42372662  MISS:     295629  HIT %:    99.3071  MISS %:   0.692854   MPKI: 1.47814
DTLB PREFETCH  REQUESTED:          0  ISSUED:          0  USEFUL:          0  USELESS:          0
DTLB USEFUL LOAD PREFETCHES:          0 PREFETCH ISSUED TO LOWER LEVEL:          0  ACCURACY: -nan
DTLB TIMELY PREFETCHES:          0 LATE PREFETCHES: 0 DROPPED PREFETCHES: 0
DTLB PREFETCHES SAME FILL-ORIGIN LEVEL: 0 DIFFERENT FILL-ORIGIN LEVEL: 0
DTLB AVERAGE MISS LATENCY: 152.284 cycles
DTLB RQ	ACCESS:   63091275	FORWARD:          0	MERGED:   20263382	TO_CACHE:   42827893

STLB TOTAL     ACCESS:    5853280  HIT:    5810667  MISS:      42613  HIT %:     99.272  MISS %:   0.728019   MPKI: 0.213065
STLB LOAD TRANSLATION ACCESS:     295629  HIT:     257643  MISS:      37986  HIT %:    87.1508  MISS %:    12.8492   MPKI: 0.18993
STLB TRANSLATION FROM L1D PREFETCHER ACCESS:    5557651  HIT:    5553024  MISS:       4627  HIT %:    99.9167  MISS %:  0.0832546   MPKI: 0.023135
STLB PREFETCH  REQUESTED:          0  ISSUED:          0  USEFUL:       4636  USELESS:          0
STLB USEFUL LOAD PREFETCHES:       4636 PREFETCH ISSUED TO LOWER LEVEL:          0  ACCURACY: inf
STLB TIMELY PREFETCHES:       4636 LATE PREFETCHES: 921 DROPPED PREFETCHES: 209773
STLB PREFETCHES SAME FILL-ORIGIN LEVEL: 0 DIFFERENT FILL-ORIGIN LEVEL: 0
STLB AVERAGE MISS LATENCY: 1024.47 cycles
STLB RQ	ACCESS:   24584569	FORWARD:          0	MERGED:   18510066	TO_CACHE:    6074503

STLB Hit, L1D data hit: 0
STLB Hit, L2C data hit: 0
STLB Hit, LLC data hit: 0
STLB Hit, LLC data miss: 0
STLB STLB hints to L2: 0
L1D TOTAL     ACCESS:   68934251  HIT:   65797294  MISS:    3136957  HIT %:    95.4493  MISS %:    4.55065   MPKI: 15.6848
L1D LOAD      ACCESS:   30646112  HIT:   30024923  MISS:     621189  HIT %:     97.973  MISS %:    2.02697   MPKI: 3.10594
L1D RFO       ACCESS:   25124654  HIT:   23932193  MISS:    1192461  HIT %:    95.2538  MISS %:    4.74618   MPKI: 5.9623
L1D PREFETCH  ACCESS:   13163485  HIT:   11840178  MISS:    1323307  HIT %:    89.9471  MISS %:    10.0529   MPKI: 6.61653
L1D PREFETCH  REQUESTED:  130418584  ISSUED:   48832616  USEFUL:    1324127  USELESS:       1567
L1D USEFUL LOAD PREFETCHES:    1324127 PREFETCH ISSUED TO LOWER LEVEL:   39861495  ACCURACY: 3.32182
L1D TIMELY PREFETCHES:    1324127 LATE PREFETCHES: 35886 DROPPED PREFETCHES: 688194
L1D PREFETCHES SAME FILL-ORIGIN LEVEL: 2000005 DIFFERENT FILL-ORIGIN LEVEL: 37861490
L1D AVERAGE MISS LATENCY: 1152.76 cycles
L1D RQ	ACCESS:   45614957	FORWARD:          0	MERGED:   12304852	TO_CACHE:   30726510
L1D WQ	ACCESS:   36714666	FORWARD:    2583595	MERGED:    4349901	TO_CACHE:   32364765
L1D PQ	ACCESS:   24544053	FORWARD:          0	MERGED:     255490	TO_CACHE:   24288563

L1D UNIQUE REGIONS ACCESSED: 0
L1D REGIONS CONFLICTS: 0
L1D Cross Page Prefetch Requests: 1860155
L1D Same Page Prefetch Requests: 35202051
L1D ROI Sum of L1D PQ occupancy: 2619101636
L1D PREFETCHES PUSHED FROM L2C: 0
L1I TOTAL     ACCESS:   28357202  HIT:   28357202  MISS:          0  HIT %:        100  MISS %:          0   MPKI: 0
L1I LOAD      ACCESS:   28357202  HIT:   28357202  MISS:          0  HIT %:        100  MISS %:          0   MPKI: 0
L1I PREFETCH  REQUESTED:          0  ISSUED:          0  USEFUL:          0  USELESS:          0
L1I USEFUL LOAD PREFETCHES:          0 PREFETCH ISSUED TO LOWER LEVEL:          0  ACCURACY: -nan
L1I TIMELY PREFETCHES:          0 LATE PREFETCHES: 0 DROPPED PREFETCHES: 0
L1I PREFETCHES SAME FILL-ORIGIN LEVEL: 0 DIFFERENT FILL-ORIGIN LEVEL: 0
L1I AVERAGE MISS LATENCY: -nan cycles
L1I RQ	ACCESS:   42088567	FORWARD:          0	MERGED:   13680585	TO_CACHE:   28407982

BTB TOTAL     ACCESS:    1687996  HIT:    1687991  MISS:          5  HIT %:    99.9997  MISS %: 0.000296209   MPKI: 2.5e-05
BTB BRANCH_DIRECT_JUMP	ACCESS:          0  HIT:          0  MISS:          0
BTB BRANCH_INDIRECT	ACCESS:          0  HIT:          0  MISS:          0
BTB BRANCH_CONDITIONAL	ACCESS:    1687996  HIT:    1687991  MISS:          5
BTB BRANCH_DIRECT_CALL	ACCESS:          0  HIT:          0  MISS:          0
BTB BRANCH_INDIRECT_CALL	ACCESS:          0  HIT:          0  MISS:          0
BTB BRANCH_RETURN	ACCESS:          0  HIT:          0  MISS:          0
BTB BRANCH_OTHER ACCESS:          0  HIT:          0  MISS:          0

L2C TOTAL     ACCESS:   11097896  HIT:    8045259  MISS:    3052637  HIT %:    72.4936  MISS %:    27.5064   MPKI: 15.2632
L2C LOAD      ACCESS:     585347  HIT:     525877  MISS:      59470  HIT %:    89.8402  MISS %:    10.1598   MPKI: 0.29735
L2C DATA LOAD MPKI: 0.29735
L2C INSTRUCTION LOAD MPKI: 0
L2C RFO       ACCESS:    1191616  HIT:        853  MISS:    1190763  HIT %:  0.0715835  MISS %:    99.9284   MPKI: 5.95381
L2C PREFETCH  ACCESS:    7870952  HIT:    6162881  MISS:    1708071  HIT %:    78.2991  MISS %:    21.7009   MPKI: 8.54035
L2C DATA PREFETCH MPKI: 8.54035
L2C INSTRUCTION PREFETCH MPKI: 0
L2C WRITEBACK ACCESS:    1196878  HIT:    1109396  MISS:      87482  HIT %:    92.6908  MISS %:    7.30918   MPKI: 0.43741
L2C LOAD TRANSLATION ACCESS:      38006  HIT:      34130  MISS:       3876  HIT %:    89.8016  MISS %:    10.1984   MPKI: 0.01938
L2C TRANSLATION FROM L1D PREFETCHER ACCESS:     215097  HIT:     212122  MISS:       2975  HIT %:    98.6169  MISS %:     1.3831   MPKI: 0.014875
L2C PREFETCH  REQUESTED:          0  ISSUED:          0  USEFUL:     493534  USELESS:    1219556
L2C USEFUL LOAD PREFETCHES:     493534 PREFETCH ISSUED TO LOWER LEVEL:    1745878  ACCURACY: 28.2685
L2C TIMELY PREFETCHES:     493534 LATE PREFETCHES: 34772 DROPPED PREFETCHES: 0
L2C PREFETCHES SAME FILL-ORIGIN LEVEL: 1514912 DIFFERENT FILL-ORIGIN LEVEL: 0
L2C AVERAGE MISS LATENCY: 2301.45 cycles
L2C RQ	ACCESS:    2034480	FORWARD:          0	MERGED:          0	TO_CACHE:    2033624
L2C WQ	ACCESS:    1198994	FORWARD:        856	MERGED:          0	TO_CACHE:    1198994
L2C PQ	ACCESS:   10737119	FORWARD:          0	MERGED:     107318	TO_CACHE:   10629801

L2C Instructions Evicting Data 0
L2C Translations Evicting Data 6827
L2C Data Evicting Data 2956973
L2C Instructions Evicting Instructions 0
L2C Translations Evicting Instructions 0
L2C Data Evicting Instructions 0
L2C Instructions Evicting Translations 0
L2C Translations Evicting Translations 41
L2C Data Evicting Translations 6590
L2C Dense regions hint from L2: 0
PSCL5 TOTAL     ACCESS:     252990  HIT:     252990  MISS:          0  HIT %:        100  MISS %:          0   MPKI: 0
PSCL5 LOAD TRANSLATION ACCESS:      37970  HIT:      37970  MISS:          0  HIT %:        100  MISS %:          0   MPKI: 0
PSCL5 TRANSLATION FROM L1D PREFETCHER ACCESS:     215020  HIT:     215020  MISS:          0  HIT %:        100  MISS %:          0   MPKI: 0
PSCL5 PREFETCH  REQUESTED:          0  ISSUED:          0  USEFUL:          0  USELESS:          0
PSCL5 USEFUL LOAD PREFETCHES:          0 PREFETCH ISSUED TO LOWER LEVEL:          0  ACCURACY: -nan
PSCL5 TIMELY PREFETCHES:          0 LATE PREFETCHES: 0 DROPPED PREFETCHES: 0
PSCL5 PREFETCHES SAME FILL-ORIGIN LEVEL: 0 DIFFERENT FILL-ORIGIN LEVEL: 0

PSCL4 TOTAL     ACCESS:     252990  HIT:     252990  MISS:          0  HIT %:        100  MISS %:          0   MPKI: 0
PSCL4 LOAD TRANSLATION ACCESS:      37970  HIT:      37970  MISS:          0  HIT %:        100  MISS %:          0   MPKI: 0
PSCL4 TRANSLATION FROM L1D PREFETCHER ACCESS:     215020  HIT:     215020  MISS:          0  HIT %:        100  MISS %:          0   MPKI: 0
PSCL4 PREFETCH  REQUESTED:          0  ISSUED:          0  USEFUL:          0  USELESS:          0
PSCL4 USEFUL LOAD PREFETCHES:          0 PREFETCH ISSUED TO LOWER LEVEL:          0  ACCURACY: -nan
PSCL4 TIMELY PREFETCHES:          0 LATE PREFETCHES: 0 DROPPED PREFETCHES: 0
PSCL4 PREFETCHES SAME FILL-ORIGIN LEVEL: 0 DIFFERENT FILL-ORIGIN LEVEL: 0

PSCL3 TOTAL     ACCESS:     192937  HIT:     192907  MISS:         30  HIT %:    99.9845  MISS %:  0.0155491   MPKI: 0.00015
PSCL3 LOAD TRANSLATION ACCESS:      29591  HIT:      29561  MISS:         30  HIT %:    99.8986  MISS %:   0.101382   MPKI: 0.00015
PSCL3 TRANSLATION FROM L1D PREFETCHER ACCESS:     163346  HIT:     163346  MISS:          0  HIT %:        100  MISS %:          0   MPKI: 0
PSCL3 PREFETCH  REQUESTED:          0  ISSUED:          0  USEFUL:          0  USELESS:          0
PSCL3 USEFUL LOAD PREFETCHES:          0 PREFETCH ISSUED TO LOWER LEVEL:          0  ACCURACY: -nan
PSCL3 TIMELY PREFETCHES:          0 LATE PREFETCHES: 0 DROPPED PREFETCHES: 0
PSCL3 PREFETCHES SAME FILL-ORIGIN LEVEL: 0 DIFFERENT FILL-ORIGIN LEVEL: 0

PSCL2 TOTAL     ACCESS:     252806  HIT:     252721  MISS:         85  HIT %:    99.9664  MISS %:  0.0336226   MPKI: 0.000425
PSCL2 LOAD TRANSLATION ACCESS:      37974  HIT:      37889  MISS:         85  HIT %:    99.7762  MISS %:   0.223837   MPKI: 0.000425
PSCL2 TRANSLATION FROM L1D PREFETCHER ACCESS:     214832  HIT:     214832  MISS:          0  HIT %:        100  MISS %:          0   MPKI: 0
PSCL2 PREFETCH  REQUESTED:          0  ISSUED:          0  USEFUL:          0  USELESS:          0
PSCL2 USEFUL LOAD PREFETCHES:          0 PREFETCH ISSUED TO LOWER LEVEL:          0  ACCURACY: -nan
PSCL2 TIMELY PREFETCHES:          0 LATE PREFETCHES: 0 DROPPED PREFETCHES: 0
PSCL2 PREFETCHES SAME FILL-ORIGIN LEVEL: 0 DIFFERENT FILL-ORIGIN LEVEL: 0

LLC TOTAL     ACCESS:    4157356  HIT:    1381873  MISS:    2775483  HIT %:    33.2392  MISS %:    66.7608   MPKI: 13.8774
LLC LOAD      ACCESS:      24771  HIT:       2229  MISS:      22542  HIT %:    8.99843  MISS %:    91.0016   MPKI: 0.11271
LLC RFO       ACCESS:    1190763  HIT:          0  MISS:    1190763  HIT %:          0  MISS %:        100   MPKI: 5.95381
LLC PREFETCH  ACCESS:    1742770  HIT:     229225  MISS:    1513545  HIT %:    13.1529  MISS %:    86.8471   MPKI: 7.56772
LLC WRITEBACK ACCESS:    1192201  HIT:    1149015  MISS:      43186  HIT %:    96.3776  MISS %:    3.62238   MPKI: 0.21593
LLC LOAD TRANSLATION ACCESS:       3876  HIT:        816  MISS:       3060  HIT %:    21.0526  MISS %:    78.9474   MPKI: 0.0153
LLC TRANSLATION FROM L1D PREFETCHER ACCESS:       2975  HIT:        588  MISS:       2387  HIT %:    19.7647  MISS %:    80.2353   MPKI: 0.011935
LLC PREFETCH  REQUESTED:          0  ISSUED:          0  USEFUL:       3050  USELESS:    6068705
LLC USEFUL LOAD PREFETCHES:       3050 PREFETCH ISSUED TO LOWER LEVEL: 1082870380  ACCURACY: 0.000281659
LLC TIMELY PREFETCHES:       3050 LATE PREFETCHES: 0 DROPPED PREFETCHES: 0
LLC PREFETCHES SAME FILL-ORIGIN LEVEL: 0 DIFFERENT FILL-ORIGIN LEVEL: 0
LLC AVERAGE MISS LATENCY: 6738.97 cycles
LLC RQ	ACCESS:    4896396	FORWARD:          0	MERGED:          0	TO_CACHE:    4896396
LLC WQ	ACCESS:    4775068	FORWARD:          0	MERGED:          0	TO_CACHE:    4775068
LLC PQ	ACCESS:    6987893	FORWARD:          0	MERGED:          0	TO_CACHE:    6987893

LLC Dense regions hint to LLC: 0

RAW hits: 13112481
Loads Generated: 58645965
Loads sent to L1D: 45533482
Stores Generated: 36649052
Stores sent to L1D: 36649059
Major fault: 0 Minor fault: 48839
Allocated PAGES: 195285

CPU 2 cumulative IPC: 0.686219 instructions: 200000002 cycles: 291451998
ITLB TOTAL     ACCESS:   24848782  HIT:   24848782  MISS:          0  HIT %:        100  MISS %:          0   MPKI: 0
ITLB LOAD TRANSLATION ACCESS:   24848782  HIT:   24848782  MISS:          0  HIT %:        100  MISS %:          0   MPKI: 0
ITLB PREFETCH  REQUESTED:          0  ISSUED:          0  USEFUL:          0  USELESS:          0
ITLB USEFUL LOAD PREFETCHES:          0 PREFETCH ISSUED TO LOWER LEVEL:          0  ACCURACY: -nan
ITLB TIMELY PREFETCHES:          0 LATE PREFETCHES: 0 DROPPED PREFETCHES: 0
ITLB PREFETCHES SAME FILL-ORIGIN LEVEL: 0 DIFFERENT FILL-ORIGIN LEVEL: 0
ITLB AVERAGE MISS LATENCY: -nan cycles
ITLB RQ	ACCESS:   28384361	FORWARD:          0	MERGED:    3512512	TO_CACHE:   24871849

DTLB TOTAL     ACCESS:   42679195  HIT:   42383601  MISS:     295594  HIT %:    99.3074  MISS %:   0.692595   MPKI: 1.47797
DTLB LOAD TRANSLATION ACCESS:   42679195  HIT:   42383601  MISS:     295594  HIT %:    99.3074  MISS %:   0.692595   MPKI: 1.47797
DTLB PREFETCH  REQUESTED:          0  ISSUED:          0  USEFUL:          0  USELESS:          0
DTLB USEFUL LOAD PREFETCHES:          0 PREFETCH ISSUED TO LOWER LEVEL:          0  ACCURACY: -nan
DTLB TIMELY PREFETCHES:          0 LATE PREFETCHES: 0 DROPPED PREFETCHES: 0
DTLB PREFETCHES SAME FILL-ORIGIN LEVEL: 0 DIFFERENT FILL-ORIGIN LEVEL: 0
DTLB AVERAGE MISS LATENCY: 154.895 cycles
DTLB RQ	ACCESS:   63073784	FORWARD:          0	MERGED:   20271221	TO_CACHE:   42802563

STLB TOTAL     ACCESS:    5860288  HIT:    5817675  MISS:      42613  HIT %:    99.2729  MISS %:   0.727149   MPKI: 0.213065
STLB LOAD TRANSLATION ACCESS:     295594  HIT:     257596  MISS:      37998  HIT %:    87.1452  MISS %:    12.8548   MPKI: 0.18999
STLB TRANSLATION FROM L1D PREFETCHER ACCESS:    5564694  HIT:    5560079  MISS:       4615  HIT %:    99.9171  MISS %:  0.0829336   MPKI: 0.023075
STLB PREFETCH  REQUESTED:          0  ISSUED:          0  USEFUL:       4621  USELESS:          0
STLB USEFUL LOAD PREFETCHES:       4621 PREFETCH ISSUED TO LOWER LEVEL:          0  ACCURACY: inf
STLB TIMELY PREFETCHES:       4621 LATE PREFETCHES: 921 DROPPED PREFETCHES: 210248
STLB PREFETCHES SAME FILL-ORIGIN LEVEL: 0 DIFFERENT FILL-ORIGIN LEVEL: 0
STLB AVERAGE MISS LATENCY: 1043.3 cycles
STLB RQ	ACCESS:   24575778	FORWARD:          0	MERGED:   18498085	TO_CACHE:    6077693

STLB Hit, L1D data hit: 0
STLB Hit, L2C data hit: 0
STLB Hit, LLC data hit: 0
STLB Hit, LLC data miss: 0
STLB STLB hints to L2: 0
L1D TOTAL     ACCESS:   68927133  HIT:   65790002  MISS:    3137131  HIT %:    95.4486  MISS %:    4.55137   MPKI: 15.6857
L1D LOAD      ACCESS:   30650216  HIT:   30026250  MISS:     623966  HIT %:    97.9642  MISS %:    2.03576   MPKI: 3.11983
L1D RFO       ACCESS:   25147435  HIT:   23955240  MISS:    1192195  HIT %:    95.2592  MISS %:    4.74082   MPKI: 5.96097
L1D PREFETCH  ACCESS:   13129482  HIT:   11808512  MISS:    1320970  HIT %:    89.9389  MISS %:    10.0611   MPKI: 6.60485
L1D PREFETCH  REQUESTED:  130271401  ISSUED:   48817962  USEFUL:    1320711  USELESS:       1616
L1D USEFUL LOAD PREFETCHES:    1320711 PREFETCH ISSUED TO LOWER LEVEL:   40041947  ACCURACY: 3.29832
L1D TIMELY PREFETCHES:    1320711 LATE PREFETCHES: 35636 DROPPED PREFETCHES: 689162
L1D PREFETCHES SAME FILL-ORIGIN LEVEL: 1980815 DIFFERENT FILL-ORIGIN LEVEL: 38061132
L1D AVERAGE MISS LATENCY: 1154.27 cycles
L1D RQ	ACCESS:   45575810	FORWARD:          0	MERGED:   12301528	TO_CACHE:   30704362
L1D WQ	ACCESS:   36683077	FORWARD:    2569920	MERGED:    4313655	TO_CACHE:   32369422
L1D PQ	ACCESS:   24538096	FORWARD:          0	MERGED:     258230	TO_CACHE:   24279866

L1D UNIQUE REGIONS ACCESSED: 0
L1D REGIONS CONFLICTS: 0
L1D Cross Page Prefetch Requests: 1861782
L1D Same Page Prefetch Requests: 35183612
L1D ROI Sum of L1D PQ occupancy: 2627352066
L1D PREFETCHES PUSHED FROM L2C: 0
L1I TOTAL     ACCESS:   28358036  HIT:   28358036  MISS:          0  HIT %:        100  MISS %:          0   MPKI: 0
L1I LOAD      ACCESS:   28358036  HIT:   28358036  MISS:          0  HIT %:        100  MISS %:          0   MPKI: 0
L1I PREFETCH  REQUESTED:          0  ISSUED:          0  USEFUL:          0  USELESS:          0
L1I USEFUL LOAD PREFETCHES:          0 PREFETCH ISSUED TO LOWER LEVEL:          0  ACCURACY: -nan
L1I TIMELY PREFETCHES:          0 LATE PREFETCHES: 0 DROPPED PREFETCHES: 0
L1I PREFETCHES SAME FILL-ORIGIN LEVEL: 0 DIFFERENT FILL-ORIGIN LEVEL: 0
L1I AVERAGE MISS LATENCY: -nan cycles
L1I RQ	ACCESS:   42052884	FORWARD:          0	MERGED:   13668523	TO_CACHE:   28384361

BTB TOTAL     ACCESS:    1687997  HIT:    1687994  MISS:          3  HIT %:    99.9998  MISS %: 0.000177725   MPKI: 1.5e-05
BTB BRANCH_DIRECT_JUMP	ACCESS:          0  HIT:          0  MISS:          0
BTB BRANCH_INDIRECT	ACCESS:          0  HIT:          0  MISS:          0
BTB BRANCH_CONDITIONAL	ACCESS:    1687997  HIT:    1687994  MISS:          3
BTB BRANCH_DIRECT_CALL	ACCESS:          0  HIT:          0  MISS:          0
BTB BRANCH_INDIRECT_CALL	ACCESS:          0  HIT:          0  MISS:          0
BTB BRANCH_RETURN	ACCESS:          0  HIT:          0  MISS:          0
BTB BRANCH_OTHER ACCESS:          0  HIT:          0  MISS:          0

L2C TOTAL     ACCESS:   11129867  HIT:    8074758  MISS:    3055109  HIT %:    72.5504  MISS %:    27.4496   MPKI: 15.2755
L2C LOAD      ACCESS:     588361  HIT:     528729  MISS:      59632  HIT %:    89.8647  MISS %:    10.1353   MPKI: 0.29816
L2C DATA LOAD MPKI: 0.29816
L2C INSTRUCTION LOAD MPKI: 0
L2C RFO       ACCESS:    1191498  HIT:        745  MISS:    1190753  HIT %:  0.0625263  MISS %:    99.9375   MPKI: 5.95376
L2C PREFETCH  ACCESS:    7899757  HIT:    6189736  MISS:    1710021  HIT %:    78.3535  MISS %:    21.6465   MPKI: 8.5501
L2C DATA PREFETCH MPKI: 8.5501
L2C INSTRUCTION PREFETCH MPKI: 0
L2C WRITEBACK ACCESS:    1196562  HIT:    1108737  MISS:      87825  HIT %:    92.6602  MISS %:    7.33978   MPKI: 0.439125
L2C LOAD TRANSLATION ACCESS:      38003  HIT:      34088  MISS:       3915  HIT %:    89.6982  MISS %:    10.3018   MPKI: 0.019575
L2C TRANSLATION FROM L1D PREFETCHER ACCESS:     215686  HIT:     212723  MISS:       2963  HIT %:    98.6262  MISS %:    1.37376   MPKI: 0.014815
L2C PREFETCH  REQUESTED:          0  ISSUED:          0  USEFUL:     496007  USELESS:    1217681
L2C USEFUL LOAD PREFETCHES:     496007 PREFETCH ISSUED TO LOWER LEVEL:    1746513  ACCURACY: 28.3998
L2C TIMELY PREFETCHES:     496007 LATE PREFETCHES: 34903 DROPPED PREFETCHES: 0
L2C PREFETCHES SAME FILL-ORIGIN LEVEL: 1516384 DIFFERENT FILL-ORIGIN LEVEL: 0
L2C AVERAGE MISS LATENCY: 2302.04 cycles
L2C RQ	ACCESS:    2036030	FORWARD:          0	MERGED:          0	TO_CACHE:    2035316
L2C WQ	ACCESS:    1197691	FORWARD:        714	MERGED:          0	TO_CACHE:    1197691
L2C PQ	ACCESS:   10770449	FORWARD:          0	MERGED:     108393	TO_CACHE:   10662056

L2C Instructions Evicting Data 0
L2C Translations Evicting Data 6840
L2C Data Evicting Data 2956573
L2C Instructions Evicting Instructions 0
L2C Translations Evicting Instructions 0
L2C Data Evicting Instructions 0
L2C Instructions Evicting Translations 0
L2C Translations Evicting Translations 48
L2C Data Evicting Translations 6570
L2C Dense regions hint from L2: 0
PSCL5 TOTAL     ACCESS:     253566  HIT:     253566  MISS:          0  HIT %:        100  MISS %:          0   MPKI: 0
PSCL5 LOAD TRANSLATION ACCESS:      37967  HIT:      37967  MISS:          0  HIT %:        100  MISS %:          0   MPKI: 0
PSCL5 TRANSLATION FROM L1D PREFETCHER ACCESS:     215599  HIT:     215599  MISS:          0  HIT %:        100  MISS %:          0   MPKI: 0
PSCL5 PREFETCH  REQUESTED:          0  ISSUED:          0  USEFUL:          0  USELESS:          0
PSCL5 USEFUL LOAD PREFETCHES:          0 PREFETCH ISSUED TO LOWER LEVEL:          0  ACCURACY: -nan
PSCL5 TIMELY PREFETCHES:          0 LATE PREFETCHES: 0 DROPPED PREFETCHES: 0
PSCL5 PREFETCHES SAME FILL-ORIGIN LEVEL: 0 DIFFERENT FILL-ORIGIN LEVEL: 0

PSCL4 TOTAL     ACCESS:     253566  HIT:     253566  MISS:          0  HIT %:        100  MISS %:          0   MPKI: 0
PSCL4 LOAD TRANSLATION ACCESS:      37967  HIT:      37967  MISS:          0  HIT %:        100  MISS %:          0   MPKI: 0
PSCL4 TRANSLATION FROM L1D PREFETCHER ACCESS:     215599  HIT:     215599  MISS:          0  HIT %:        100  MISS %:          0   MPKI: 0
PSCL4 PREFETCH  REQUESTED:          0  ISSUED:          0  USEFUL:          0  USELESS:          0
PSCL4 USEFUL LOAD PREFETCHES:          0 PREFETCH ISSUED TO LOWER LEVEL:          0  ACCURACY: -nan
PSCL4 TIMELY PREFETCHES:          0 LATE PREFETCHES: 0 DROPPED PREFETCHES: 0
PSCL4 PREFETCHES SAME FILL-ORIGIN LEVEL: 0 DIFFERENT FILL-ORIGIN LEVEL: 0

PSCL3 TOTAL     ACCESS:     193361  HIT:     193331  MISS:         30  HIT %:    99.9845  MISS %:   0.015515   MPKI: 0.00015
PSCL3 LOAD TRANSLATION ACCESS:      29685  HIT:      29655  MISS:         30  HIT %:    99.8989  MISS %:   0.101061   MPKI: 0.00015
PSCL3 TRANSLATION FROM L1D PREFETCHER ACCESS:     163676  HIT:     163676  MISS:          0  HIT %:        100  MISS %:          0   MPKI: 0
PSCL3 PREFETCH  REQUESTED:          0  ISSUED:          0  USEFUL:          0  USELESS:          0
PSCL3 USEFUL LOAD PREFETCHES:          0 PREFETCH ISSUED TO LOWER LEVEL:          0  ACCURACY: -nan
PSCL3 TIMELY PREFETCHES:          0 LATE PREFETCHES: 0 DROPPED PREFETCHES: 0
PSCL3 PREFETCHES SAME FILL-ORIGIN LEVEL: 0 DIFFERENT FILL-ORIGIN LEVEL: 0

PSCL2 TOTAL     ACCESS:     253393  HIT:     253308  MISS:         85  HIT %:    99.9665  MISS %:  0.0335447   MPKI: 0.000425
PSCL2 LOAD TRANSLATION ACCESS:      37971  HIT:      37886  MISS:         85  HIT %:    99.7761  MISS %:   0.223855   MPKI: 0.000425
PSCL2 TRANSLATION FROM L1D PREFETCHER ACCESS:     215422  HIT:     215422  MISS:          0  HIT %:        100  MISS %:          0   MPKI: 0
PSCL2 PREFETCH  REQUESTED:          0  ISSUED:          0  USEFUL:          0  USELESS:          0
PSCL2 USEFUL LOAD PREFETCHES:          0 PREFETCH ISSUED TO LOWER LEVEL:          0  ACCURACY: -nan
PSCL2 TIMELY PREFETCHES:          0 LATE PREFETCHES: 0 DROPPED PREFETCHES: 0
PSCL2 PREFETCHES SAME FILL-ORIGIN LEVEL: 0 DIFFERENT FILL-ORIGIN LEVEL: 0

LLC TOTAL     ACCESS:    4159345  HIT:    1383590  MISS:    2775755  HIT %:    33.2646  MISS %:    66.7354   MPKI: 13.8788
LLC LOAD      ACCESS:      24762  HIT:       2205  MISS:      22557  HIT %:    8.90477  MISS %:    91.0952   MPKI: 0.112785
LLC RFO       ACCESS:    1190754  HIT:          0  MISS:    1190754  HIT %:          0  MISS %:        100   MPKI: 5.95377
LLC PREFETCH  ACCESS:    1744891  HIT:     231020  MISS:    1513871  HIT %:    13.2398  MISS %:    86.7602   MPKI: 7.56935
LLC WRITEBACK ACCESS:    1192060  HIT:    1148940  MISS:      43120  HIT %:    96.3827  MISS %:    3.61727   MPKI: 0.2156
LLC LOAD TRANSLATION ACCESS:       3915  HIT:        853  MISS:       3062  HIT %:     21.788  MISS %:     78.212   MPKI: 0.01531
LLC TRANSLATION FROM L1D PREFETCHER ACCESS:       2963  HIT:        572  MISS:       2391  HIT %:    19.3048  MISS %:    80.6952   MPKI: 0.011955
LLC PREFETCH  REQUESTED:          0  ISSUED:          0  USEFUL:       3050  USELESS:    6068705
LLC USEFUL LOAD PREFETCHES:       3050 PREFETCH ISSUED TO LOWER LEVEL: 1082870380  ACCURACY: 0.000281659
LLC TIMELY PREFETCHES:       3050 LATE PREFETCHES: 0 DROPPED PREFETCHES: 0
LLC PREFETCHES SAME FILL-ORIGIN LEVEL: 0 DIFFERENT FILL-ORIGIN LEVEL: 0
LLC AVERAGE MISS LATENCY: 6738.31 cycles
LLC RQ	ACCESS:    4896396	FORWARD:          0	MERGED:          0	TO_CACHE:    4896396
LLC WQ	ACCESS:    4775068	FORWARD:          0	MERGED:          0	TO_CACHE:    4775068
LLC PQ	ACCESS:    6987893	FORWARD:          0	MERGED:          0	TO_CACHE:    6987893

LLC Dense regions hint to LLC: 0

RAW hits: 13112395
Loads Generated: 58645956
Loads sent to L1D: 45533560
Stores Generated: 36649052
Stores sent to L1D: 36649064
Major fault: 0 Minor fault: 48809
Allocated PAGES: 195285

CPU 3 cumulative IPC: 0.687384 instructions: 200000001 cycles: 290958144
ITLB TOTAL     ACCESS:   24848158  HIT:   24848158  MISS:          0  HIT %:        100  MISS %:          0   MPKI: 0
ITLB LOAD TRANSLATION ACCESS:   24848158  HIT:   24848158  MISS:          0  HIT %:        100  MISS %:          0   MPKI: 0
ITLB PREFETCH  REQUESTED:          0  ISSUED:          0  USEFUL:          0  USELESS:          0
ITLB USEFUL LOAD PREFETCHES:          0 PREFETCH ISSUED TO LOWER LEVEL:          0  ACCURACY: -nan
ITLB TIMELY PREFETCHES:          0 LATE PREFETCHES: 0 DROPPED PREFETCHES: 0
ITLB PREFETCHES SAME FILL-ORIGIN LEVEL: 0 DIFFERENT FILL-ORIGIN LEVEL: 0
ITLB AVERAGE MISS LATENCY: -nan cycles
ITLB RQ	ACCESS:   28433735	FORWARD:          0	MERGED:    3519372	TO_CACHE:   24914363

DTLB TOTAL     ACCESS:   42664290  HIT:   42368556  MISS:     295734  HIT %:    99.3068  MISS %:   0.693165   MPKI: 1.47867
DTLB LOAD TRANSLATION ACCESS:   42664290  HIT:   42368556  MISS:     295734  HIT %:    99.3068  MISS %:   0.693165   MPKI: 1.47867
DTLB PREFETCH  REQUESTED:          0  ISSUED:          0  USEFUL:          0  USELESS:          0
DTLB USEFUL LOAD PREFETCHES:          0 PREFETCH ISSUED TO LOWER LEVEL:          0  ACCURACY: -nan
DTLB TIMELY PREFETCHES:          0 LATE PREFETCHES: 0 DROPPED PREFETCHES: 0
DTLB PREFETCHES SAME FILL-ORIGIN LEVEL: 0 DIFFERENT FILL-ORIGIN LEVEL: 0
DTLB AVERAGE MISS LATENCY: 152.269 cycles
DTLB RQ	ACCESS:   63132638	FORWARD:          0	MERGED:   20270591	TO_CACHE:   42862047

STLB TOTAL     ACCESS:    5856831  HIT:    5814220  MISS:      42611  HIT %:    99.2725  MISS %:   0.727544   MPKI: 0.213055
STLB LOAD TRANSLATION ACCESS:     295734  HIT:     257751  MISS:      37983  HIT %:    87.1564  MISS %:    12.8436   MPKI: 0.189915
STLB TRANSLATION FROM L1D PREFETCHER ACCESS:    5561097  HIT:    5556469  MISS:       4628  HIT %:    99.9168  MISS %:   0.083221   MPKI: 0.02314
STLB PREFETCH  REQUESTED:          0  ISSUED:          0  USEFUL:       4641  USELESS:          0
STLB USEFUL LOAD PREFETCHES:       4641 PREFETCH ISSUED TO LOWER LEVEL:          0  ACCURACY: inf
STLB TIMELY PREFETCHES:       4641 LATE PREFETCHES: 959 DROPPED PREFETCHES: 210102
STLB PREFETCHES SAME FILL-ORIGIN LEVEL: 0 DIFFERENT FILL-ORIGIN LEVEL: 0
STLB AVERAGE MISS LATENCY: 1026.28 cycles
STLB RQ	ACCESS:   24604570	FORWARD:          0	MERGED:   18519867	TO_CACHE:    6084703

STLB Hit, L1D data hit: 0
STLB Hit, L2C data hit: 0
STLB Hit, LLC data hit: 0
STLB Hit, LLC data miss: 0
STLB STLB hints to L2: 0
L1D TOTAL     ACCESS:   68889867  HIT:   65753729  MISS:    3136138  HIT %:    95.4476  MISS %:    4.55239   MPKI: 15.6807
L1D LOAD      ACCESS:   30645994  HIT:   30024220  MISS:     621774  HIT %:    97.9711  MISS %:    2.02889   MPKI: 3.10887
L1D RFO       ACCESS:   25110142  HIT:   23917811  MISS:    1192331  HIT %:    95.2516  MISS %:     4.7484   MPKI: 5.96165
L1D PREFETCH  ACCESS:   13133731  HIT:   11811698  MISS:    1322033  HIT %:    89.9341  MISS %:    10.0659   MPKI: 6.61016
L1D PREFETCH  REQUESTED:  130396425  ISSUED:   48863032  USEFUL:    1324283  USELESS:       1568
L1D USEFUL LOAD PREFETCHES:    1324283 PREFETCH ISSUED TO LOWER LEVEL:   39537599  ACCURACY: 3.34943
L1D TIMELY PREFETCHES:    1324283 LATE PREFETCHES: 35711 DROPPED PREFETCHES: 688930
L1D PREFETCHES SAME FILL-ORIGIN LEVEL: 1978324 DIFFERENT FILL-ORIGIN LEVEL: 37559275
L1D AVERAGE MISS LATENCY: 1155.84 cycles
L1D RQ	ACCESS:   45655229	FORWARD:          0	MERGED:   12313177	TO_CACHE:   30753519
L1D WQ	ACCESS:   36746940	FORWARD:    2588533	MERGED:    4367821	TO_CACHE:   32379119
L1D PQ	ACCESS:   24554603	FORWARD:          0	MERGED:     246174	TO_CACHE:   24308429

L1D UNIQUE REGIONS ACCESSED: 0
L1D REGIONS CONFLICTS: 0
L1D Cross Page Prefetch Requests: 1857636
L1D Same Page Prefetch Requests: 35217310
L1D ROI Sum of L1D PQ occupancy: 2625403500
L1D PREFETCHES PUSHED FROM L2C: 0
L1I TOTAL     ACCESS:   28358158  HIT:   28358158  MISS:          0  HIT %:        100  MISS %:          0   MPKI: 0
L1I LOAD      ACCESS:   28358158  HIT:   28358158  MISS:          0  HIT %:        100  MISS %:          0   MPKI: 0
L1I PREFETCH  REQUESTED:          0  ISSUED:          0  USEFUL:          0  USELESS:          0
L1I USEFUL LOAD PREFETCHES:          0 PREFETCH ISSUED TO LOWER LEVEL:          0  ACCURACY: -nan
L1I TIMELY PREFETCHES:          0 LATE PREFETCHES: 0 DROPPED PREFETCHES: 0
L1I PREFETCHES SAME FILL-ORIGIN LEVEL: 0 DIFFERENT FILL-ORIGIN LEVEL: 0
L1I AVERAGE MISS LATENCY: -nan cycles
L1I RQ	ACCESS:   42123544	FORWARD:          0	MERGED:   13689809	TO_CACHE:   28433735

BTB TOTAL     ACCESS:    1687998  HIT:    1687995  MISS:          3  HIT %:    99.9998  MISS %: 0.000177725   MPKI: 1.5e-05
BTB BRANCH_DIRECT_JUMP	ACCESS:          0  HIT:          0  MISS:          0
BTB BRANCH_INDIRECT	ACCESS:          0  HIT:          0  MISS:          0
BTB BRANCH_CONDITIONAL	ACCESS:    1687998  HIT:    1687995  MISS:          3
BTB BRANCH_DIRECT_CALL	ACCESS:          0  HIT:          0  MISS:          0
BTB BRANCH_INDIRECT_CALL	ACCESS:          0  HIT:          0  MISS:          0
BTB BRANCH_RETURN	ACCESS:          0  HIT:          0  MISS:          0
BTB BRANCH_OTHER ACCESS:          0  HIT:          0  MISS:          0

L2C TOTAL     ACCESS:   11121086  HIT:    8064368  MISS:    3056718  HIT %:    72.5142  MISS %:    27.4858   MPKI: 15.2836
L2C LOAD      ACCESS:     586140  HIT:     526849  MISS:      59291  HIT %:    89.8845  MISS %:    10.1155   MPKI: 0.296455
L2C DATA LOAD MPKI: 0.296455
L2C INSTRUCTION LOAD MPKI: 0
L2C RFO       ACCESS:    1191554  HIT:        798  MISS:    1190756  HIT %:  0.0669714  MISS %:     99.933   MPKI: 5.95378
L2C PREFETCH  ACCESS:    7893545  HIT:    6182932  MISS:    1710613  HIT %:     78.329  MISS %:     21.671   MPKI: 8.55306
L2C DATA PREFETCH MPKI: 8.55306
L2C INSTRUCTION PREFETCH MPKI: 0
L2C WRITEBACK ACCESS:    1196706  HIT:    1107454  MISS:      89252  HIT %:    92.5419  MISS %:    7.45814   MPKI: 0.44626
L2C LOAD TRANSLATION ACCESS:      38003  HIT:      34171  MISS:       3832  HIT %:    89.9166  MISS %:    10.0834   MPKI: 0.01916
L2C TRANSLATION FROM L1D PREFETCHER ACCESS:     215138  HIT:     212164  MISS:       2974  HIT %:    98.6176  MISS %:    1.38237   MPKI: 0.01487
L2C PREFETCH  REQUESTED:          0  ISSUED:          0  USEFUL:     495309  USELESS:    1221855
L2C USEFUL LOAD PREFETCHES:     495309 PREFETCH ISSUED TO LOWER LEVEL:    1749592  ACCURACY: 28.31
L2C TIMELY PREFETCHES:     495309 LATE PREFETCHES: 34415 DROPPED PREFETCHES: 0
L2C PREFETCHES SAME FILL-ORIGIN LEVEL: 1518345 DIFFERENT FILL-ORIGIN LEVEL: 0
L2C AVERAGE MISS LATENCY: 2301.46 cycles
L2C RQ	ACCESS:    2036911	FORWARD:          0	MERGED:          0	TO_CACHE:    2036095
L2C WQ	ACCESS:    1199886	FORWARD:        816	MERGED:          0	TO_CACHE:    1199886
L2C PQ	ACCESS:   10769437	FORWARD:          0	MERGED:     107496	TO_CACHE:   10661941

L2C Instructions Evicting Data 0
L2C Translations Evicting Data 6798
L2C Data Evicting Data 2961965
L2C Instructions Evicting Instructions 0
L2C Translations Evicting Instructions 0
L2C Data Evicting Instructions 0
L2C Instructions Evicting Translations 0
L2C Translations Evicting Translations 26
L2C Data Evicting Translations 6556
L2C Dense regions hint from L2: 0
PSCL5 TOTAL     ACCESS:     253049  HIT:     253049  MISS:          0  HIT %:        100  MISS %:          0   MPKI: 0
PSCL5 LOAD TRANSLATION ACCESS:      37969  HIT:      37969  MISS:          0  HIT %:        100  MISS %:          0   MPKI: 0
PSCL5 TRANSLATION FROM L1D PREFETCHER ACCESS:     215080  HIT:     215080  MISS:          0  HIT %:        100  MISS %:          0   MPKI: 0
PSCL5 PREFETCH  REQUESTED:          0  ISSUED:          0  USEFUL:          0  USELESS:          0
PSCL5 USEFUL LOAD PREFETCHES:          0 PREFETCH ISSUED TO LOWER LEVEL:          0  ACCURACY: -nan
PSCL5 TIMELY PREFETCHES:          0 LATE PREFETCHES: 0 DROPPED PREFETCHES: 0
PSCL5 PREFETCHES SAME FILL-ORIGIN LEVEL: 0 DIFFERENT FILL-ORIGIN LEVEL: 0

PSCL4 TOTAL     ACCESS:     253049  HIT:     253049  MISS:          0  HIT %:        100  MISS %:          0   MPKI: 0
PSCL4 LOAD TRANSLATION ACCESS:      37969  HIT:      37969  MISS:          0  HIT %:        100  MISS %:          0   MPKI: 0
PSCL4 TRANSLATION FROM L1D PREFETCHER ACCESS:     215080  HIT:     215080  MISS:          0  HIT %:        100  MISS %:          0   MPKI: 0
PSCL4 PREFETCH  REQUESTED:          0  ISSUED:          0  USEFUL:          0  USELESS:          0
PSCL4 USEFUL LOAD PREFETCHES:          0 PREFETCH ISSUED TO LOWER LEVEL:          0  ACCURACY: -nan
PSCL4 TIMELY PREFETCHES:          0 LATE PREFETCHES: 0 DROPPED PREFETCHES: 0
PSCL4 PREFETCHES SAME FILL-ORIGIN LEVEL: 0 DIFFERENT FILL-ORIGIN LEVEL: 0

PSCL3 TOTAL     ACCESS:     199899  HIT:     199870  MISS:         29  HIT %:    99.9855  MISS %:  0.0145073   MPKI: 0.000145
PSCL3 LOAD TRANSLATION ACCESS:      29602  HIT:      29573  MISS:         29  HIT %:     99.902  MISS %:  0.0979664   MPKI: 0.000145
PSCL3 TRANSLATION FROM L1D PREFETCHER ACCESS:     170297  HIT:     170297  MISS:          0  HIT %:        100  MISS %:          0   MPKI: 0
PSCL3 PREFETCH  REQUESTED:          0  ISSUED:          0  USEFUL:          0  USELESS:          0
PSCL3 USEFUL LOAD PREFETCHES:          0 PREFETCH ISSUED TO LOWER LEVEL:          0  ACCURACY: -nan
PSCL3 TIMELY PREFETCHES:          0 LATE PREFETCHES: 0 DROPPED PREFETCHES: 0
PSCL3 PREFETCHES SAME FILL-ORIGIN LEVEL: 0 DIFFERENT FILL-ORIGIN LEVEL: 0

PSCL2 TOTAL     ACCESS:     252910  HIT:     252826  MISS:         84  HIT %:    99.9668  MISS %:  0.0332134   MPKI: 0.00042
PSCL2 LOAD TRANSLATION ACCESS:      37973  HIT:      37889  MISS:         84  HIT %:    99.7788  MISS %:    0.22121   MPKI: 0.00042
PSCL2 TRANSLATION FROM L1D PREFETCHER ACCESS:     214937  HIT:     214937  MISS:          0  HIT %:        100  MISS %:          0   MPKI: 0
PSCL2 PREFETCH  REQUESTED:          0  ISSUED:          0  USEFUL:          0  USELESS:          0
PSCL2 USEFUL LOAD PREFETCHES:          0 PREFETCH ISSUED TO LOWER LEVEL:          0  ACCURACY: -nan
PSCL2 TIMELY PREFETCHES:          0 LATE PREFETCHES: 0 DROPPED PREFETCHES: 0
PSCL2 PREFETCHES SAME FILL-ORIGIN LEVEL: 0 DIFFERENT FILL-ORIGIN LEVEL: 0

LLC TOTAL     ACCESS:    4159642  HIT:    1383858  MISS:    2775784  HIT %:    33.2687  MISS %:    66.7313   MPKI: 13.8789
LLC LOAD      ACCESS:      24953  HIT:       2255  MISS:      22698  HIT %:    9.03699  MISS %:     90.963   MPKI: 0.11349
LLC RFO       ACCESS:    1190756  HIT:          0  MISS:    1190756  HIT %:          0  MISS %:        100   MPKI: 5.95378
LLC PREFETCH  ACCESS:    1744951  HIT:     231309  MISS:    1513642  HIT %:    13.2559  MISS %:    86.7441   MPKI: 7.56821
LLC WRITEBACK ACCESS:    1192176  HIT:    1148932  MISS:      43244  HIT %:    96.3727  MISS %:    3.62732   MPKI: 0.21622
LLC LOAD TRANSLATION ACCESS:       3832  HIT:        774  MISS:       3058  HIT %:    20.1983  MISS %:    79.8017   MPKI: 0.01529
LLC TRANSLATION FROM L1D PREFETCHER ACCESS:       2974  HIT:        588  MISS:       2386  HIT %:    19.7714  MISS %:    80.2286   MPKI: 0.01193
LLC PREFETCH  REQUESTED:          0  ISSUED:          0  USEFUL:       3050  USELESS:    6068705
LLC USEFUL LOAD PREFETCHES:       3050 PREFETCH ISSUED TO LOWER LEVEL: 1082870380  ACCURACY: 0.000281659
LLC TIMELY PREFETCHES:       3050 LATE PREFETCHES: 0 DROPPED PREFETCHES: 0
LLC PREFETCHES SAME FILL-ORIGIN LEVEL: 0 DIFFERENT FILL-ORIGIN LEVEL: 0
LLC AVERAGE MISS LATENCY: 6738.24 cycles
LLC RQ	ACCESS:    4896396	FORWARD:          0	MERGED:          0	TO_CACHE:    4896396
LLC WQ	ACCESS:    4775068	FORWARD:          0	MERGED:          0	TO_CACHE:    4775068
LLC PQ	ACCESS:    6987893	FORWARD:          0	MERGED:          0	TO_CACHE:    6987893

LLC Dense regions hint to LLC: 0

RAW hits: 13112311
Loads Generated: 58645963
Loads sent to L1D: 45533649
Stores Generated: 36649040
Stores sent to L1D: 36649061
Major fault: 0 Minor fault: 48868
Allocated PAGES: 195285

DRAM Statistics
 CHANNEL 0
 RQ ROW_BUFFER_HIT:    5368316  ROW_BUFFER_MISS:    5576309
 DBUS_CONGESTED:          0
 WQ ROW_BUFFER_HIT:     410623  ROW_BUFFER_MISS:    4360583  FULL:          0

 AVG_CONGESTED_CYCLE: -
 All warmup complete: 5
Channel 0 Bank busy for read cycles: 0
Channel 0 Bank busy for write cycles: 0
Channel 0
Rank 0
0banks busy for read cycles: 51
0banks busy for write cycles: 0
1banks busy for read cycles: 478877
1banks busy for write cycles: 478857
2banks busy for read cycles: 479165
2banks busy for write cycles: 478857
3banks busy for read cycles: 481457
3banks busy for write cycles: 478857
4banks busy for read cycles: 489788
4banks busy for write cycles: 478863
5banks busy for read cycles: 576954
5banks busy for write cycles: 481629
6banks busy for read cycles: 1776715
6banks busy for write cycles: 777875
7banks busy for read cycles: 20709325
7banks busy for write cycles: 11622234
8banks busy for read cycles: 139022807
8banks busy for write cycles: 112934386

CPU 0 Branch Prediction Accuracy: 99.9697% MPKI: 0.00255999 Average ROB Occupancy at Mispredict: 306.904
Branch types
NOT_BRANCH: 198311949 99.156%
BRANCH_DIRECT_JUMP: 0 0%
BRANCH_INDIRECT: 0 0%
BRANCH_CONDITIONAL: 1688006 0.844003%
BRANCH_DIRECT_CALL: 0 0%
BRANCH_INDIRECT_CALL: 0 0%
BRANCH_RETURN: 0 0%
BRANCH_OTHER: 0 0%


CPU 1 Branch Prediction Accuracy: 99.9697% MPKI: 0.00256042 Average ROB Occupancy at Mispredict: 307.653
Branch types
NOT_BRANCH: 198667007 99.156%
BRANCH_DIRECT_JUMP: 0 0%
BRANCH_INDIRECT: 0 0%
BRANCH_CONDITIONAL: 1691027 0.844002%
BRANCH_DIRECT_CALL: 0 0%
BRANCH_INDIRECT_CALL: 0 0%
BRANCH_RETURN: 0 0%
BRANCH_OTHER: 0 0%


CPU 2 Branch Prediction Accuracy: 99.9696% MPKI: 0.0025626 Average ROB Occupancy at Mispredict: 306.273
Branch types
NOT_BRANCH: 198496004 99.156%
BRANCH_DIRECT_JUMP: 0 0%
BRANCH_INDIRECT: 0 0%
BRANCH_CONDITIONAL: 1689572 0.844003%
BRANCH_DIRECT_CALL: 0 0%
BRANCH_INDIRECT_CALL: 0 0%
BRANCH_RETURN: 0 0%
BRANCH_OTHER: 0 0%


CPU 3 Branch Prediction Accuracy: 99.9697% MPKI: 0.00255816 Average ROB Occupancy at Mispredict: 307.376
Branch types
NOT_BRANCH: 198841657 99.156%
BRANCH_DIRECT_JUMP: 0 0%
BRANCH_INDIRECT: 0 0%
BRANCH_CONDITIONAL: 1692515 0.844003%
BRANCH_DIRECT_CALL: 0 0%
BRANCH_INDIRECT_CALL: 0 0%
BRANCH_RETURN: 0 0%
BRANCH_OTHER: 0 0%

DRAM PAGES: 1048576
Allocated PAGES: 195285
