
*** ChampSim Multicore Out-of-Order Simulator ***

Warmup Instructions: 50000000
Simulation Instructions: 200000000
Number of CPUs: 4
LLC sets: 8192
LLC ways: 16
Off-chip DRAM Size: 4096 MB Channels: 1 Width: 64-bit Data Rate: 6400 MT/s
CPU 0 runs ./traces/ligra/ligra_PageRank.com-lj.ungraph.gcc_6.3.0_O3.drop_51000M.length_250M.champsimtrace.xz
.xz
CPU 1 runs ./traces/ligra/ligra_PageRank.com-lj.ungraph.gcc_6.3.0_O3.drop_51000M.length_250M.champsimtrace.xz
.xz
CPU 2 runs ./traces/ligra/ligra_PageRank.com-lj.ungraph.gcc_6.3.0_O3.drop_51000M.length_250M.champsimtrace.xz
.xz
CPU 3 runs ./traces/ligra/ligra_PageRank.com-lj.ungraph.gcc_6.3.0_O3.drop_51000M.length_250M.champsimtrace.xz
.xz
BTB has LRU replacement policy
ITLB has LRU replacement policy
DTLB has LRU replacement policy
STLB has LRU replacement policy
L1I has LRU replacement policy
History Sets: 8
History Ways: 16
BERTI Size: 16
BERTI Stride Size: 8
L1D has LRU replacement policy
Initialize SRRIP state for L2C
Initialize DRRIP state for LLC
BTB has LRU replacement policy
ITLB has LRU replacement policy
DTLB has LRU replacement policy
STLB has LRU replacement policy
L1I has LRU replacement policy
History Sets: 8
History Ways: 16
BERTI Size: 16
BERTI Stride Size: 8
L1D has LRU replacement policy
Initialize SRRIP state for L2C
Initialize DRRIP state for LLC
BTB has LRU replacement policy
ITLB has LRU replacement policy
DTLB has LRU replacement policy
STLB has LRU replacement policy
L1I has LRU replacement policy
History Sets: 8
History Ways: 16
BERTI Size: 16
BERTI Stride Size: 8
L1D has LRU replacement policy
Initialize SRRIP state for L2C
Initialize DRRIP state for LLC
BTB has LRU replacement policy
ITLB has LRU replacement policy
DTLB has LRU replacement policy
STLB has LRU replacement policy
L1I has LRU replacement policy
History Sets: 8
History Ways: 16
BERTI Size: 16
BERTI Stride Size: 8
L1D has LRU replacement policy
Initialize SRRIP state for L2C
Initialize DRRIP state for LLC
Heartbeat CPU 1 instructions: 10000000 cycles: 2680462 heartbeat IPC: 3.7307 cumulative IPC: 3.7307 (Simulation time: 0 hr 3 min 19 sec) 
Heartbeat CPU 0 instructions: 10000000 cycles: 2680631 heartbeat IPC: 3.73046 cumulative IPC: 3.73046 (Simulation time: 0 hr 3 min 19 sec) 
Heartbeat CPU 2 instructions: 10000000 cycles: 2680818 heartbeat IPC: 3.7302 cumulative IPC: 3.7302 (Simulation time: 0 hr 3 min 19 sec) 
Heartbeat CPU 3 instructions: 10000003 cycles: 2680969 heartbeat IPC: 3.73 cumulative IPC: 3.73 (Simulation time: 0 hr 3 min 19 sec) 
Heartbeat CPU 1 instructions: 20000002 cycles: 5604715 heartbeat IPC: 3.41968 cumulative IPC: 3.56842 (Simulation time: 0 hr 6 min 2 sec) 
Heartbeat CPU 0 instructions: 20000002 cycles: 5604837 heartbeat IPC: 3.41973 cumulative IPC: 3.56835 (Simulation time: 0 hr 6 min 2 sec) 
Heartbeat CPU 2 instructions: 20000002 cycles: 5604990 heartbeat IPC: 3.41977 cumulative IPC: 3.56825 (Simulation time: 0 hr 6 min 2 sec) 
Heartbeat CPU 3 instructions: 20000002 cycles: 5605112 heartbeat IPC: 3.41981 cumulative IPC: 3.56817 (Simulation time: 0 hr 6 min 2 sec) 
Heartbeat CPU 1 instructions: 30000003 cycles: 8933989 heartbeat IPC: 3.00366 cumulative IPC: 3.35796 (Simulation time: 0 hr 8 min 8 sec) 
Heartbeat CPU 0 instructions: 30000003 cycles: 8934111 heartbeat IPC: 3.00366 cumulative IPC: 3.35792 (Simulation time: 0 hr 8 min 8 sec) 
Heartbeat CPU 2 instructions: 30000003 cycles: 8934264 heartbeat IPC: 3.00366 cumulative IPC: 3.35786 (Simulation time: 0 hr 8 min 8 sec) 
Heartbeat CPU 3 instructions: 30000003 cycles: 8934386 heartbeat IPC: 3.00366 cumulative IPC: 3.35781 (Simulation time: 0 hr 8 min 8 sec) 
Heartbeat CPU 1 instructions: 40000001 cycles: 12266300 heartbeat IPC: 3.00092 cumulative IPC: 3.26097 (Simulation time: 0 hr 10 min 6 sec) 
Heartbeat CPU 0 instructions: 40000001 cycles: 12266423 heartbeat IPC: 3.00092 cumulative IPC: 3.26093 (Simulation time: 0 hr 10 min 6 sec) 
Heartbeat CPU 2 instructions: 40000001 cycles: 12266583 heartbeat IPC: 3.00091 cumulative IPC: 3.26089 (Simulation time: 0 hr 10 min 6 sec) 
Heartbeat CPU 3 instructions: 40000001 cycles: 12266708 heartbeat IPC: 3.00091 cumulative IPC: 3.26086 (Simulation time: 0 hr 10 min 6 sec) 
Heartbeat CPU 1 instructions: 50000002 cycles: 15599636 heartbeat IPC: 3 cumulative IPC: 3.2052 (Simulation time: 0 hr 12 min 5 sec) 
Heartbeat CPU 0 instructions: 50000002 cycles: 15599759 heartbeat IPC: 3 cumulative IPC: 3.20518 (Simulation time: 0 hr 12 min 5 sec) 
Heartbeat CPU 2 instructions: 50000002 cycles: 15599919 heartbeat IPC: 3 cumulative IPC: 3.20514 (Simulation time: 0 hr 12 min 5 sec) 
Heartbeat CPU 3 instructions: 50000002 cycles: 15600045 heartbeat IPC: 3 cumulative IPC: 3.20512 (Simulation time: 0 hr 12 min 5 sec) 

Warmup complete CPU 0 instructions: 50000855 cycles: 15600045 (Simulation time: 0 hr 12 min 5 sec) 
Warmup complete CPU 1 instructions: 50001223 cycles: 15600045 (Simulation time: 0 hr 12 min 5 sec) 
Warmup complete CPU 2 instructions: 50000373 cycles: 15600045 (Simulation time: 0 hr 12 min 5 sec) 
Warmup complete CPU 3 instructions: 50000002 cycles: 15600045 (Simulation time: 0 hr 12 min 5 sec) 

Heartbeat CPU 3 instructions: 60000002 cycles: 44367483 heartbeat IPC: 0.347615 cumulative IPC: 0.347615 (Simulation time: 0 hr 23 min 39 sec) 
Heartbeat CPU 0 instructions: 60000003 cycles: 44462392 heartbeat IPC: 0.346469 cumulative IPC: 0.346443 (Simulation time: 0 hr 23 min 41 sec) 
Heartbeat CPU 2 instructions: 60000003 cycles: 44774923 heartbeat IPC: 0.342759 cumulative IPC: 0.342748 (Simulation time: 0 hr 23 min 49 sec) 
Heartbeat CPU 1 instructions: 60000003 cycles: 44890433 heartbeat IPC: 0.341404 cumulative IPC: 0.341367 (Simulation time: 0 hr 23 min 52 sec) 
Heartbeat CPU 0 instructions: 70000000 cycles: 55696336 heartbeat IPC: 0.890159 cumulative IPC: 0.498778 (Simulation time: 0 hr 28 min 8 sec) 
Heartbeat CPU 3 instructions: 70000000 cycles: 55712631 heartbeat IPC: 0.881434 cumulative IPC: 0.498597 (Simulation time: 0 hr 28 min 9 sec) 
Heartbeat CPU 2 instructions: 70000000 cycles: 55749278 heartbeat IPC: 0.911215 cumulative IPC: 0.498132 (Simulation time: 0 hr 28 min 10 sec) 
Heartbeat CPU 1 instructions: 70000000 cycles: 55767169 heartbeat IPC: 0.919393 cumulative IPC: 0.497889 (Simulation time: 0 hr 28 min 11 sec) 
Heartbeat CPU 0 instructions: 80000001 cycles: 63019664 heartbeat IPC: 1.3655 cumulative IPC: 0.632632 (Simulation time: 0 hr 32 min 19 sec) 
Heartbeat CPU 3 instructions: 80000001 cycles: 63027687 heartbeat IPC: 1.36704 cumulative IPC: 0.632542 (Simulation time: 0 hr 32 min 19 sec) 
Heartbeat CPU 2 instructions: 80000003 cycles: 63057282 heartbeat IPC: 1.36836 cumulative IPC: 0.63214 (Simulation time: 0 hr 32 min 21 sec) 
Heartbeat CPU 1 instructions: 80000000 cycles: 63079906 heartbeat IPC: 1.36748 cumulative IPC: 0.631821 (Simulation time: 0 hr 32 min 22 sec) 
Heartbeat CPU 0 instructions: 90000000 cycles: 70495484 heartbeat IPC: 1.33765 cumulative IPC: 0.728642 (Simulation time: 0 hr 36 min 34 sec) 
Heartbeat CPU 3 instructions: 90000001 cycles: 70518187 heartbeat IPC: 1.33502 cumulative IPC: 0.728357 (Simulation time: 0 hr 36 min 35 sec) 
Heartbeat CPU 1 instructions: 90000000 cycles: 70553258 heartbeat IPC: 1.33809 cumulative IPC: 0.72787 (Simulation time: 0 hr 36 min 36 sec) 
Heartbeat CPU 2 instructions: 90000000 cycles: 70567805 heartbeat IPC: 1.33146 cumulative IPC: 0.727692 (Simulation time: 0 hr 36 min 37 sec) 
Heartbeat CPU 0 instructions: 100000000 cycles: 80086727 heartbeat IPC: 1.04262 cumulative IPC: 0.775341 (Simulation time: 0 hr 41 min 20 sec) 
Heartbeat CPU 3 instructions: 100000000 cycles: 80128009 heartbeat IPC: 1.0406 cumulative IPC: 0.774858 (Simulation time: 0 hr 41 min 21 sec) 
Heartbeat CPU 1 instructions: 100000000 cycles: 80174881 heartbeat IPC: 1.03933 cumulative IPC: 0.774276 (Simulation time: 0 hr 41 min 22 sec) 
Heartbeat CPU 2 instructions: 100000002 cycles: 80187758 heartbeat IPC: 1.03951 cumulative IPC: 0.774135 (Simulation time: 0 hr 41 min 23 sec) 
Heartbeat CPU 3 instructions: 110000000 cycles: 90148817 heartbeat IPC: 0.997923 cumulative IPC: 0.804842 (Simulation time: 0 hr 45 min 58 sec) 
Heartbeat CPU 2 instructions: 110000000 cycles: 90174686 heartbeat IPC: 1.00131 cumulative IPC: 0.804558 (Simulation time: 0 hr 45 min 58 sec) 
Heartbeat CPU 0 instructions: 110000000 cycles: 90183962 heartbeat IPC: 0.99037 cumulative IPC: 0.804452 (Simulation time: 0 hr 45 min 59 sec) 
Heartbeat CPU 1 instructions: 110000000 cycles: 90288592 heartbeat IPC: 0.988757 cumulative IPC: 0.80332 (Simulation time: 0 hr 46 min 2 sec) 
Heartbeat CPU 2 instructions: 120000001 cycles: 101914903 heartbeat IPC: 0.851773 cumulative IPC: 0.81098 (Simulation time: 0 hr 51 min 2 sec) 
Heartbeat CPU 0 instructions: 120000001 cycles: 102075066 heartbeat IPC: 0.840965 cumulative IPC: 0.809472 (Simulation time: 0 hr 51 min 6 sec) 
Heartbeat CPU 3 instructions: 120000001 cycles: 102102527 heartbeat IPC: 0.83656 cumulative IPC: 0.809225 (Simulation time: 0 hr 51 min 7 sec) 
Heartbeat CPU 1 instructions: 120000001 cycles: 102292033 heartbeat IPC: 0.833095 cumulative IPC: 0.807442 (Simulation time: 0 hr 51 min 11 sec) 
Heartbeat CPU 2 instructions: 130000000 cycles: 114971211 heartbeat IPC: 0.765913 cumulative IPC: 0.805059 (Simulation time: 0 hr 55 min 31 sec) 
Heartbeat CPU 0 instructions: 130000001 cycles: 115186627 heartbeat IPC: 0.762686 cumulative IPC: 0.803312 (Simulation time: 0 hr 55 min 35 sec) 
Heartbeat CPU 3 instructions: 130000001 cycles: 115549576 heartbeat IPC: 0.743658 cumulative IPC: 0.800404 (Simulation time: 0 hr 55 min 43 sec) 
Heartbeat CPU 1 instructions: 130000000 cycles: 115751885 heartbeat IPC: 0.74295 cumulative IPC: 0.798775 (Simulation time: 0 hr 55 min 48 sec) 
Heartbeat CPU 2 instructions: 140000001 cycles: 132692946 heartbeat IPC: 0.564279 cumulative IPC: 0.768617 (Simulation time: 1 hr 1 min 9 sec) 
Heartbeat CPU 0 instructions: 140000001 cycles: 133017977 heartbeat IPC: 0.56081 cumulative IPC: 0.766486 (Simulation time: 1 hr 1 min 13 sec) 
Heartbeat CPU 3 instructions: 140000001 cycles: 133986893 heartbeat IPC: 0.542378 cumulative IPC: 0.76022 (Simulation time: 1 hr 1 min 28 sec) 
Heartbeat CPU 1 instructions: 140000001 cycles: 134367199 heartbeat IPC: 0.537192 cumulative IPC: 0.757775 (Simulation time: 1 hr 1 min 33 sec) 
Heartbeat CPU 2 instructions: 150000002 cycles: 154873978 heartbeat IPC: 0.450836 cumulative IPC: 0.718007 (Simulation time: 1 hr 6 min 56 sec) 
Heartbeat CPU 0 instructions: 150000002 cycles: 155149989 heartbeat IPC: 0.451834 cumulative IPC: 0.716583 (Simulation time: 1 hr 7 min 0 sec) 
Heartbeat CPU 3 instructions: 150000002 cycles: 156811623 heartbeat IPC: 0.438121 cumulative IPC: 0.708157 (Simulation time: 1 hr 7 min 25 sec) 
Heartbeat CPU 1 instructions: 150000002 cycles: 157083826 heartbeat IPC: 0.440206 cumulative IPC: 0.706786 (Simulation time: 1 hr 7 min 30 sec) 
Heartbeat CPU 2 instructions: 160000002 cycles: 182620232 heartbeat IPC: 0.360409 cumulative IPC: 0.658601 (Simulation time: 1 hr 13 min 28 sec) 
Heartbeat CPU 0 instructions: 160000002 cycles: 182946419 heartbeat IPC: 0.359758 cumulative IPC: 0.657314 (Simulation time: 1 hr 13 min 33 sec) 
Heartbeat CPU 3 instructions: 160000002 cycles: 185372384 heartbeat IPC: 0.350131 cumulative IPC: 0.647927 (Simulation time: 1 hr 14 min 6 sec) 
Heartbeat CPU 1 instructions: 160000002 cycles: 185547312 heartbeat IPC: 0.351327 cumulative IPC: 0.647252 (Simulation time: 1 hr 14 min 9 sec) 
Heartbeat CPU 2 instructions: 170000000 cycles: 209266172 heartbeat IPC: 0.375292 cumulative IPC: 0.619621 (Simulation time: 1 hr 19 min 53 sec) 
Heartbeat CPU 0 instructions: 170000000 cycles: 209466999 heartbeat IPC: 0.377066 cumulative IPC: 0.618977 (Simulation time: 1 hr 19 min 55 sec) 
Heartbeat CPU 3 instructions: 170000000 cycles: 211814310 heartbeat IPC: 0.378187 cumulative IPC: 0.611576 (Simulation time: 1 hr 20 min 23 sec) 
Heartbeat CPU 1 instructions: 170000000 cycles: 212156335 heartbeat IPC: 0.375812 cumulative IPC: 0.610506 (Simulation time: 1 hr 20 min 27 sec) 
Heartbeat CPU 2 instructions: 180000002 cycles: 241969445 heartbeat IPC: 0.30578 cumulative IPC: 0.574281 (Simulation time: 1 hr 26 min 3 sec) 
Heartbeat CPU 0 instructions: 180000001 cycles: 242047379 heartbeat IPC: 0.306933 cumulative IPC: 0.574081 (Simulation time: 1 hr 26 min 4 sec) 
Heartbeat CPU 3 instructions: 180000000 cycles: 243936292 heartbeat IPC: 0.311313 cumulative IPC: 0.569336 (Simulation time: 1 hr 26 min 35 sec) 
Heartbeat CPU 1 instructions: 180000000 cycles: 244310864 heartbeat IPC: 0.310998 cumulative IPC: 0.568398 (Simulation time: 1 hr 26 min 41 sec) 
Heartbeat CPU 0 instructions: 190000000 cycles: 260832529 heartbeat IPC: 0.532335 cumulative IPC: 0.570883 (Simulation time: 1 hr 31 min 7 sec) 
Heartbeat CPU 2 instructions: 190000000 cycles: 260856339 heartbeat IPC: 0.529468 cumulative IPC: 0.57083 (Simulation time: 1 hr 31 min 7 sec) 
Heartbeat CPU 3 instructions: 190000003 cycles: 262702867 heartbeat IPC: 0.532862 cumulative IPC: 0.566566 (Simulation time: 1 hr 31 min 36 sec) 
Heartbeat CPU 1 instructions: 190000000 cycles: 263198876 heartbeat IPC: 0.529436 cumulative IPC: 0.565426 (Simulation time: 1 hr 31 min 43 sec) 
Heartbeat CPU 0 instructions: 200000002 cycles: 285093344 heartbeat IPC: 0.412187 cumulative IPC: 0.556597 (Simulation time: 1 hr 36 min 56 sec) 
Heartbeat CPU 2 instructions: 200000002 cycles: 285122614 heartbeat IPC: 0.412095 cumulative IPC: 0.556538 (Simulation time: 1 hr 36 min 56 sec) 
Heartbeat CPU 3 instructions: 200000002 cycles: 287148958 heartbeat IPC: 0.409063 cumulative IPC: 0.552387 (Simulation time: 1 hr 37 min 26 sec) 
Heartbeat CPU 1 instructions: 200000002 cycles: 287684758 heartbeat IPC: 0.408399 cumulative IPC: 0.551294 (Simulation time: 1 hr 37 min 32 sec) 
Heartbeat CPU 0 instructions: 210000001 cycles: 316256405 heartbeat IPC: 0.320893 cumulative IPC: 0.532166 (Simulation time: 1 hr 43 min 32 sec) 
Heartbeat CPU 2 instructions: 210000001 cycles: 316367622 heartbeat IPC: 0.320051 cumulative IPC: 0.531971 (Simulation time: 1 hr 43 min 33 sec) 
Heartbeat CPU 3 instructions: 210000000 cycles: 318235007 heartbeat IPC: 0.321688 cumulative IPC: 0.52869 (Simulation time: 1 hr 44 min 1 sec) 
Heartbeat CPU 1 instructions: 210000001 cycles: 318835973 heartbeat IPC: 0.321015 cumulative IPC: 0.527638 (Simulation time: 1 hr 44 min 9 sec) 
Heartbeat CPU 0 instructions: 220000000 cycles: 342584633 heartbeat IPC: 0.37982 cumulative IPC: 0.5199 (Simulation time: 1 hr 49 min 46 sec) 
Heartbeat CPU 2 instructions: 220000000 cycles: 342819861 heartbeat IPC: 0.37804 cumulative IPC: 0.519527 (Simulation time: 1 hr 49 min 49 sec) 
Heartbeat CPU 3 instructions: 220000000 cycles: 344773577 heartbeat IPC: 0.37681 cumulative IPC: 0.516445 (Simulation time: 1 hr 50 min 12 sec) 
Heartbeat CPU 1 instructions: 220000000 cycles: 345376576 heartbeat IPC: 0.376781 cumulative IPC: 0.515497 (Simulation time: 1 hr 50 min 20 sec) 
Heartbeat CPU 0 instructions: 230000001 cycles: 379440935 heartbeat IPC: 0.271324 cumulative IPC: 0.494719 (Simulation time: 1 hr 57 min 2 sec) 
Heartbeat CPU 2 instructions: 230000001 cycles: 379868086 heartbeat IPC: 0.269919 cumulative IPC: 0.494141 (Simulation time: 1 hr 57 min 7 sec) 
Heartbeat CPU 3 instructions: 230000001 cycles: 381752587 heartbeat IPC: 0.270424 cumulative IPC: 0.491598 (Simulation time: 1 hr 57 min 31 sec) 
Heartbeat CPU 1 instructions: 230000001 cycles: 382467472 heartbeat IPC: 0.269608 cumulative IPC: 0.490637 (Simulation time: 1 hr 57 min 40 sec) 
Heartbeat CPU 0 instructions: 240000003 cycles: 415348934 heartbeat IPC: 0.27849 cumulative IPC: 0.475296 (Simulation time: 2 hr 4 min 10 sec) 
Heartbeat CPU 2 instructions: 240000003 cycles: 415873180 heartbeat IPC: 0.277739 cumulative IPC: 0.474675 (Simulation time: 2 hr 4 min 16 sec) 
Heartbeat CPU 3 instructions: 240000003 cycles: 417905408 heartbeat IPC: 0.276604 cumulative IPC: 0.472278 (Simulation time: 2 hr 4 min 37 sec) 
Heartbeat CPU 1 instructions: 240000003 cycles: 418652251 heartbeat IPC: 0.276359 cumulative IPC: 0.4714 (Simulation time: 2 hr 4 min 46 sec) 
*** Reached end of trace for Core: 0 Repeating trace: ./traces/ligra/ligra_PageRank.com-lj.ungraph.gcc_6.3.0_O3.drop_51000M.length_250M.champsimtrace.xz
Heartbeat CPU 0 instructions: 250000000 cycles: 454652150 heartbeat IPC: 0.254432 cumulative IPC: 0.455525 (Simulation time: 2 hr 11 min 2 sec) 
Finished CPU 0 instructions: 200000002 cycles: 439053847 cumulative IPC: 0.455525 (Simulation time: 2 hr 11 min 2 sec) 
*** Reached end of trace for Core: 2 Repeating trace: ./traces/ligra/ligra_PageRank.com-lj.ungraph.gcc_6.3.0_O3.drop_51000M.length_250M.champsimtrace.xz
Heartbeat CPU 2 instructions: 250000000 cycles: 455140902 heartbeat IPC: 0.254662 cumulative IPC: 0.455019 (Simulation time: 2 hr 11 min 7 sec) 
Finished CPU 2 instructions: 200000003 cycles: 439542711 cumulative IPC: 0.455018 (Simulation time: 2 hr 11 min 7 sec) 
*** Reached end of trace for Core: 3 Repeating trace: ./traces/ligra/ligra_PageRank.com-lj.ungraph.gcc_6.3.0_O3.drop_51000M.length_250M.champsimtrace.xz
Heartbeat CPU 3 instructions: 250000000 cycles: 458757004 heartbeat IPC: 0.244788 cumulative IPC: 0.451307 (Simulation time: 2 hr 11 min 44 sec) 
Finished CPU 3 instructions: 200000002 cycles: 443156960 cumulative IPC: 0.451307 (Simulation time: 2 hr 11 min 44 sec) 
*** Reached end of trace for Core: 1 Repeating trace: ./traces/ligra/ligra_PageRank.com-lj.ungraph.gcc_6.3.0_O3.drop_51000M.length_250M.champsimtrace.xz
Heartbeat CPU 1 instructions: 250000000 cycles: 460982106 heartbeat IPC: 0.23624 cumulative IPC: 0.44905 (Simulation time: 2 hr 12 min 5 sec) 
Finished CPU 1 instructions: 200000002 cycles: 445386811 cumulative IPC: 0.449048 (Simulation time: 2 hr 12 min 5 sec) 

ChampSim completed all CPUs

Total Simulation Statistics (not including warmup)

CPU 0 cumulative IPC: 0.453143 instructions: 201823807 cycles: 445386811
ITLB TOTAL     ACCESS:   26008621  HIT:   26008619  MISS:          2  HIT %:        100  MISS %: 7.68976e-06   MPKI: 9.90963e-06
ITLB LOAD      ACCESS:          0  HIT:          0  MISS:          0  HIT %:       -nan  MISS %:       -nan   MPKI: 0
ITLB RFO       ACCESS:          0  HIT:          0  MISS:          0  HIT %:       -nan  MISS %:       -nan   MPKI: 0
ITLB PREFETCH  ACCESS:          0  HIT:          0  MISS:          0  HIT %:       -nan  MISS %:       -nan   MPKI: 0
ITLB WRITEBACK ACCESS:          0  HIT:          0  MISS:          0  HIT %:       -nan  MISS %:       -nan   MPKI: 0
DTLB TOTAL     ACCESS:   50295731  HIT:   37551757  MISS:   12743974  HIT %:    74.6619  MISS %:    25.3381   MPKI: 63.1441
DTLB LOAD      ACCESS:          0  HIT:          0  MISS:          0  HIT %:       -nan  MISS %:       -nan   MPKI: 0
DTLB RFO       ACCESS:          0  HIT:          0  MISS:          0  HIT %:       -nan  MISS %:       -nan   MPKI: 0
DTLB PREFETCH  ACCESS:          0  HIT:          0  MISS:          0  HIT %:       -nan  MISS %:       -nan   MPKI: 0
DTLB WRITEBACK ACCESS:          0  HIT:          0  MISS:          0  HIT %:       -nan  MISS %:       -nan   MPKI: 0
STLB TOTAL     ACCESS:   19866127  HIT:   19297074  MISS:     569053  HIT %:    97.1356  MISS %:    2.86444   MPKI: 2.81955
STLB LOAD      ACCESS:          0  HIT:          0  MISS:          0  HIT %:       -nan  MISS %:       -nan   MPKI: 0
STLB RFO       ACCESS:          0  HIT:          0  MISS:          0  HIT %:       -nan  MISS %:       -nan   MPKI: 0
STLB PREFETCH  ACCESS:          0  HIT:          0  MISS:          0  HIT %:       -nan  MISS %:       -nan   MPKI: 0
STLB WRITEBACK ACCESS:          0  HIT:          0  MISS:          0  HIT %:       -nan  MISS %:       -nan   MPKI: 0
L1D TOTAL     ACCESS:   85639761  HIT:   67926807  MISS:   17712954  HIT %:    79.3169  MISS %:    20.6831   MPKI: 87.7644
L1D LOAD      ACCESS:   44495647  HIT:   27845979  MISS:   16649668  HIT %:    62.5814  MISS %:    37.4186   MPKI: 82.4961
L1D RFO       ACCESS:    8294987  HIT:    8103903  MISS:     191084  HIT %:    97.6964  MISS %:    2.30361   MPKI: 0.946786
L1D PREFETCH  ACCESS:   32849127  HIT:   31976925  MISS:     872202  HIT %:    97.3448  MISS %:    2.65518   MPKI: 4.3216
L1D WRITEBACK ACCESS:          0  HIT:          0  MISS:          0  HIT %:       -nan  MISS %:       -nan   MPKI: 0
L1I TOTAL     ACCESS:   27991263  HIT:   27991245  MISS:         18  HIT %:    99.9999  MISS %: 6.43058e-05   MPKI: 8.91867e-05
L1I LOAD      ACCESS:   27991263  HIT:   27991245  MISS:         18  HIT %:    99.9999  MISS %: 6.43058e-05   MPKI: 8.91867e-05
L1I RFO       ACCESS:          0  HIT:          0  MISS:          0  HIT %:       -nan  MISS %:       -nan   MPKI: 0
L1I PREFETCH  ACCESS:          0  HIT:          0  MISS:          0  HIT %:       -nan  MISS %:       -nan   MPKI: 0
L1I WRITEBACK ACCESS:          0  HIT:          0  MISS:          0  HIT %:       -nan  MISS %:       -nan   MPKI: 0
L2C TOTAL     ACCESS:   25685516  HIT:   15616578  MISS:   10068938  HIT %:    60.7992  MISS %:    39.2008   MPKI: 49.8897
L2C LOAD      ACCESS:   16640081  HIT:    8014006  MISS:    8626075  HIT %:    48.1609  MISS %:    51.8391   MPKI: 42.7406
L2C RFO       ACCESS:     191084  HIT:          0  MISS:     191084  HIT %:          0  MISS %:        100   MPKI: 0.946786
L2C PREFETCH  ACCESS:    7362876  HIT:    6358090  MISS:    1004786  HIT %:    86.3533  MISS %:    13.6467   MPKI: 4.97853
L2C WRITEBACK ACCESS:     305397  HIT:     150023  MISS:     155374  HIT %:    49.1239  MISS %:    50.8761   MPKI: 0.76985
PSCL5 TOTAL     ACCESS:    1186063  HIT:    1186063  MISS:          0  HIT %:        100  MISS %:          0   MPKI: 0
PSCL5 LOAD      ACCESS:          0  HIT:          0  MISS:          0  HIT %:       -nan  MISS %:       -nan   MPKI: 0
PSCL5 RFO       ACCESS:          0  HIT:          0  MISS:          0  HIT %:       -nan  MISS %:       -nan   MPKI: 0
PSCL5 PREFETCH  ACCESS:          0  HIT:          0  MISS:          0  HIT %:       -nan  MISS %:       -nan   MPKI: 0
PSCL5 WRITEBACK ACCESS:          0  HIT:          0  MISS:          0  HIT %:       -nan  MISS %:       -nan   MPKI: 0
PSCL4 TOTAL     ACCESS:    1186056  HIT:    1186056  MISS:          0  HIT %:        100  MISS %:          0   MPKI: 0
PSCL4 LOAD      ACCESS:          0  HIT:          0  MISS:          0  HIT %:       -nan  MISS %:       -nan   MPKI: 0
PSCL4 RFO       ACCESS:          0  HIT:          0  MISS:          0  HIT %:       -nan  MISS %:       -nan   MPKI: 0
PSCL4 PREFETCH  ACCESS:          0  HIT:          0  MISS:          0  HIT %:       -nan  MISS %:       -nan   MPKI: 0
PSCL4 WRITEBACK ACCESS:          0  HIT:          0  MISS:          0  HIT %:       -nan  MISS %:       -nan   MPKI: 0
PSCL3 TOTAL     ACCESS:    1186056  HIT:    1186056  MISS:          0  HIT %:        100  MISS %:          0   MPKI: 0
PSCL3 LOAD      ACCESS:          0  HIT:          0  MISS:          0  HIT %:       -nan  MISS %:       -nan   MPKI: 0
PSCL3 RFO       ACCESS:          0  HIT:          0  MISS:          0  HIT %:       -nan  MISS %:       -nan   MPKI: 0
PSCL3 PREFETCH  ACCESS:          0  HIT:          0  MISS:          0  HIT %:       -nan  MISS %:       -nan   MPKI: 0
PSCL3 WRITEBACK ACCESS:          0  HIT:          0  MISS:          0  HIT %:       -nan  MISS %:       -nan   MPKI: 0
PSCL2 TOTAL     ACCESS:    1185083  HIT:    1185047  MISS:         36  HIT %:     99.997  MISS %: 0.00303776   MPKI: 0.000178373
PSCL2 LOAD      ACCESS:          0  HIT:          0  MISS:          0  HIT %:       -nan  MISS %:       -nan   MPKI: 0
PSCL2 RFO       ACCESS:          0  HIT:          0  MISS:          0  HIT %:       -nan  MISS %:       -nan   MPKI: 0
PSCL2 PREFETCH  ACCESS:          0  HIT:          0  MISS:          0  HIT %:       -nan  MISS %:       -nan   MPKI: 0
PSCL2 WRITEBACK ACCESS:          0  HIT:          0  MISS:          0  HIT %:       -nan  MISS %:       -nan   MPKI: 0
LLC TOTAL     ACCESS:   10221589  HIT:    6550312  MISS:    3671277  HIT %:    64.0831  MISS %:    35.9169   MPKI: 18.1905
LLC LOAD      ACCESS:    8593503  HIT:    6123759  MISS:    2469744  HIT %:    71.2603  MISS %:    28.7397   MPKI: 12.2371
LLC RFO       ACCESS:     191084  HIT:          0  MISS:     191084  HIT %:          0  MISS %:        100   MPKI: 0.946786
LLC PREFETCH  ACCESS:    1037358  HIT:      57077  MISS:     980281  HIT %:    5.50215  MISS %:    94.4978   MPKI: 4.85711
LLC WRITEBACK ACCESS:     308025  HIT:     285783  MISS:      22242  HIT %:    92.7792  MISS %:    7.22084   MPKI: 0.110205

RAW hits: 7478386
Loads Generated: 80375031
Loads sent to L1D: 72896645
Stores Generated: 11321178
Stores sent to L1D: 11321178

CPU 1 cumulative IPC: 0.449048 instructions: 200000002 cycles: 445386811
ITLB TOTAL     ACCESS:   25706859  HIT:   25706857  MISS:          2  HIT %:        100  MISS %: 7.78002e-06   MPKI: 1e-05
ITLB LOAD      ACCESS:          0  HIT:          0  MISS:          0  HIT %:       -nan  MISS %:       -nan   MPKI: 0
ITLB RFO       ACCESS:          0  HIT:          0  MISS:          0  HIT %:       -nan  MISS %:       -nan   MPKI: 0
ITLB PREFETCH  ACCESS:          0  HIT:          0  MISS:          0  HIT %:       -nan  MISS %:       -nan   MPKI: 0
ITLB WRITEBACK ACCESS:          0  HIT:          0  MISS:          0  HIT %:       -nan  MISS %:       -nan   MPKI: 0
DTLB TOTAL     ACCESS:   49858947  HIT:   37116513  MISS:   12742434  HIT %:     74.443  MISS %:     25.557   MPKI: 63.7122
DTLB LOAD      ACCESS:          0  HIT:          0  MISS:          0  HIT %:       -nan  MISS %:       -nan   MPKI: 0
DTLB RFO       ACCESS:          0  HIT:          0  MISS:          0  HIT %:       -nan  MISS %:       -nan   MPKI: 0
DTLB PREFETCH  ACCESS:          0  HIT:          0  MISS:          0  HIT %:       -nan  MISS %:       -nan   MPKI: 0
DTLB WRITEBACK ACCESS:          0  HIT:          0  MISS:          0  HIT %:       -nan  MISS %:       -nan   MPKI: 0
STLB TOTAL     ACCESS:   19751709  HIT:   19184163  MISS:     567546  HIT %:    97.1266  MISS %:     2.8734   MPKI: 2.83773
STLB LOAD      ACCESS:          0  HIT:          0  MISS:          0  HIT %:       -nan  MISS %:       -nan   MPKI: 0
STLB RFO       ACCESS:          0  HIT:          0  MISS:          0  HIT %:       -nan  MISS %:       -nan   MPKI: 0
STLB PREFETCH  ACCESS:          0  HIT:          0  MISS:          0  HIT %:       -nan  MISS %:       -nan   MPKI: 0
STLB WRITEBACK ACCESS:          0  HIT:          0  MISS:          0  HIT %:       -nan  MISS %:       -nan   MPKI: 0
L1D TOTAL     ACCESS:   85177874  HIT:   67566288  MISS:   17611586  HIT %:    79.3238  MISS %:    20.6762   MPKI: 88.0579
L1D LOAD      ACCESS:   44282581  HIT:   27727239  MISS:   16555342  HIT %:    62.6143  MISS %:    37.3857   MPKI: 82.7767
L1D RFO       ACCESS:    8075440  HIT:    7884362  MISS:     191078  HIT %:    97.6338  MISS %:    2.36616   MPKI: 0.95539
L1D PREFETCH  ACCESS:   32819853  HIT:   31954687  MISS:     865166  HIT %:    97.3639  MISS %:    2.63611   MPKI: 4.32583
L1D WRITEBACK ACCESS:          0  HIT:          0  MISS:          0  HIT %:       -nan  MISS %:       -nan   MPKI: 0
L1I TOTAL     ACCESS:   27460979  HIT:   27460961  MISS:         18  HIT %:    99.9999  MISS %: 6.55476e-05   MPKI: 9e-05
L1I LOAD      ACCESS:   27460979  HIT:   27460961  MISS:         18  HIT %:    99.9999  MISS %: 6.55476e-05   MPKI: 9e-05
L1I RFO       ACCESS:          0  HIT:          0  MISS:          0  HIT %:       -nan  MISS %:       -nan   MPKI: 0
L1I PREFETCH  ACCESS:          0  HIT:          0  MISS:          0  HIT %:       -nan  MISS %:       -nan   MPKI: 0
L1I WRITEBACK ACCESS:          0  HIT:          0  MISS:          0  HIT %:       -nan  MISS %:       -nan   MPKI: 0
L2C TOTAL     ACCESS:   25370262  HIT:   15324303  MISS:   10045959  HIT %:    60.4026  MISS %:    39.5974   MPKI: 50.2298
L2C LOAD      ACCESS:   16548569  HIT:    7908147  MISS:    8640422  HIT %:    47.7875  MISS %:    52.2125   MPKI: 43.2021
L2C RFO       ACCESS:     191078  HIT:          0  MISS:     191078  HIT %:          0  MISS %:        100   MPKI: 0.95539
L2C PREFETCH  ACCESS:    7190991  HIT:    6253345  MISS:     937646  HIT %:    86.9608  MISS %:    13.0392   MPKI: 4.68823
L2C WRITEBACK ACCESS:     255085  HIT:     111771  MISS:     143314  HIT %:    43.8172  MISS %:    56.1828   MPKI: 0.71657
PSCL5 TOTAL     ACCESS:    1184529  HIT:    1184529  MISS:          0  HIT %:        100  MISS %:          0   MPKI: 0
PSCL5 LOAD      ACCESS:          0  HIT:          0  MISS:          0  HIT %:       -nan  MISS %:       -nan   MPKI: 0
PSCL5 RFO       ACCESS:          0  HIT:          0  MISS:          0  HIT %:       -nan  MISS %:       -nan   MPKI: 0
PSCL5 PREFETCH  ACCESS:          0  HIT:          0  MISS:          0  HIT %:       -nan  MISS %:       -nan   MPKI: 0
PSCL5 WRITEBACK ACCESS:          0  HIT:          0  MISS:          0  HIT %:       -nan  MISS %:       -nan   MPKI: 0
PSCL4 TOTAL     ACCESS:    1184522  HIT:    1184522  MISS:          0  HIT %:        100  MISS %:          0   MPKI: 0
PSCL4 LOAD      ACCESS:          0  HIT:          0  MISS:          0  HIT %:       -nan  MISS %:       -nan   MPKI: 0
PSCL4 RFO       ACCESS:          0  HIT:          0  MISS:          0  HIT %:       -nan  MISS %:       -nan   MPKI: 0
PSCL4 PREFETCH  ACCESS:          0  HIT:          0  MISS:          0  HIT %:       -nan  MISS %:       -nan   MPKI: 0
PSCL4 WRITEBACK ACCESS:          0  HIT:          0  MISS:          0  HIT %:       -nan  MISS %:       -nan   MPKI: 0
PSCL3 TOTAL     ACCESS:    1184522  HIT:    1184522  MISS:          0  HIT %:        100  MISS %:          0   MPKI: 0
PSCL3 LOAD      ACCESS:          0  HIT:          0  MISS:          0  HIT %:       -nan  MISS %:       -nan   MPKI: 0
PSCL3 RFO       ACCESS:          0  HIT:          0  MISS:          0  HIT %:       -nan  MISS %:       -nan   MPKI: 0
PSCL3 PREFETCH  ACCESS:          0  HIT:          0  MISS:          0  HIT %:       -nan  MISS %:       -nan   MPKI: 0
PSCL3 WRITEBACK ACCESS:          0  HIT:          0  MISS:          0  HIT %:       -nan  MISS %:       -nan   MPKI: 0
PSCL2 TOTAL     ACCESS:    1183384  HIT:    1183350  MISS:         34  HIT %:    99.9971  MISS %: 0.00287312   MPKI: 0.00017
PSCL2 LOAD      ACCESS:          0  HIT:          0  MISS:          0  HIT %:       -nan  MISS %:       -nan   MPKI: 0
PSCL2 RFO       ACCESS:          0  HIT:          0  MISS:          0  HIT %:       -nan  MISS %:       -nan   MPKI: 0
PSCL2 PREFETCH  ACCESS:          0  HIT:          0  MISS:          0  HIT %:       -nan  MISS %:       -nan   MPKI: 0
PSCL2 WRITEBACK ACCESS:          0  HIT:          0  MISS:          0  HIT %:       -nan  MISS %:       -nan   MPKI: 0
LLC TOTAL     ACCESS:   10163631  HIT:    6559591  MISS:    3604040  HIT %:    64.5398  MISS %:    35.4602   MPKI: 18.0202
LLC LOAD      ACCESS:    8635810  HIT:    6134251  MISS:    2501559  HIT %:    71.0327  MISS %:    28.9673   MPKI: 12.5078
LLC RFO       ACCESS:     191078  HIT:          0  MISS:     191078  HIT %:          0  MISS %:        100   MPKI: 0.95539
LLC PREFETCH  ACCESS:     942258  HIT:      56575  MISS:     885683  HIT %:    6.00419  MISS %:    93.9958   MPKI: 4.42841
LLC WRITEBACK ACCESS:     260986  HIT:     240713  MISS:      20273  HIT %:    92.2322  MISS %:    7.76785   MPKI: 0.101365

RAW hits: 7478837
Loads Generated: 79767189
Loads sent to L1D: 72288352
Stores Generated: 11118522
Stores sent to L1D: 11118522

CPU 2 cumulative IPC: 0.452632 instructions: 201596285 cycles: 445386811
ITLB TOTAL     ACCESS:   25976355  HIT:   25976353  MISS:          2  HIT %:        100  MISS %: 7.69931e-06   MPKI: 9.92082e-06
ITLB LOAD      ACCESS:          0  HIT:          0  MISS:          0  HIT %:       -nan  MISS %:       -nan   MPKI: 0
ITLB RFO       ACCESS:          0  HIT:          0  MISS:          0  HIT %:       -nan  MISS %:       -nan   MPKI: 0
ITLB PREFETCH  ACCESS:          0  HIT:          0  MISS:          0  HIT %:       -nan  MISS %:       -nan   MPKI: 0
ITLB WRITEBACK ACCESS:          0  HIT:          0  MISS:          0  HIT %:       -nan  MISS %:       -nan   MPKI: 0
DTLB TOTAL     ACCESS:   50252769  HIT:   37508901  MISS:   12743868  HIT %:    74.6405  MISS %:    25.3595   MPKI: 63.2148
DTLB LOAD      ACCESS:          0  HIT:          0  MISS:          0  HIT %:       -nan  MISS %:       -nan   MPKI: 0
DTLB RFO       ACCESS:          0  HIT:          0  MISS:          0  HIT %:       -nan  MISS %:       -nan   MPKI: 0
DTLB PREFETCH  ACCESS:          0  HIT:          0  MISS:          0  HIT %:       -nan  MISS %:       -nan   MPKI: 0
DTLB WRITEBACK ACCESS:          0  HIT:          0  MISS:          0  HIT %:       -nan  MISS %:       -nan   MPKI: 0
STLB TOTAL     ACCESS:   19855156  HIT:   19286269  MISS:     568887  HIT %:    97.1348  MISS %:    2.86519   MPKI: 2.82191
STLB LOAD      ACCESS:          0  HIT:          0  MISS:          0  HIT %:       -nan  MISS %:       -nan   MPKI: 0
STLB RFO       ACCESS:          0  HIT:          0  MISS:          0  HIT %:       -nan  MISS %:       -nan   MPKI: 0
STLB PREFETCH  ACCESS:          0  HIT:          0  MISS:          0  HIT %:       -nan  MISS %:       -nan   MPKI: 0
STLB WRITEBACK ACCESS:          0  HIT:          0  MISS:          0  HIT %:       -nan  MISS %:       -nan   MPKI: 0
L1D TOTAL     ACCESS:   85672464  HIT:   67973149  MISS:   17699315  HIT %:    79.3407  MISS %:    20.6593   MPKI: 87.7958
L1D LOAD      ACCESS:   44476901  HIT:   27838531  MISS:   16638370  HIT %:     62.591  MISS %:     37.409   MPKI: 82.5331
L1D RFO       ACCESS:    8275683  HIT:    8084590  MISS:     191093  HIT %:    97.6909  MISS %:    2.30909   MPKI: 0.947899
L1D PREFETCH  ACCESS:   32919880  HIT:   32050028  MISS:     869852  HIT %:    97.3577  MISS %:    2.64233   MPKI: 4.31482
L1D WRITEBACK ACCESS:          0  HIT:          0  MISS:          0  HIT %:       -nan  MISS %:       -nan   MPKI: 0
L1I TOTAL     ACCESS:   27930324  HIT:   27930306  MISS:         18  HIT %:    99.9999  MISS %: 6.44461e-05   MPKI: 8.92874e-05
L1I LOAD      ACCESS:   27930324  HIT:   27930306  MISS:         18  HIT %:    99.9999  MISS %: 6.44461e-05   MPKI: 8.92874e-05
L1I RFO       ACCESS:          0  HIT:          0  MISS:          0  HIT %:       -nan  MISS %:       -nan   MPKI: 0
L1I PREFETCH  ACCESS:          0  HIT:          0  MISS:          0  HIT %:       -nan  MISS %:       -nan   MPKI: 0
L1I WRITEBACK ACCESS:          0  HIT:          0  MISS:          0  HIT %:       -nan  MISS %:       -nan   MPKI: 0
L2C TOTAL     ACCESS:   25605185  HIT:   15479634  MISS:   10125551  HIT %:    60.4551  MISS %:    39.5449   MPKI: 50.2269
L2C LOAD      ACCESS:   16629334  HIT:    7949316  MISS:    8680018  HIT %:     47.803  MISS %:     52.197   MPKI: 43.0564
L2C RFO       ACCESS:     191093  HIT:          0  MISS:     191093  HIT %:          0  MISS %:        100   MPKI: 0.947899
L2C PREFETCH  ACCESS:    7297822  HIT:    6298958  MISS:     998864  HIT %:    86.3128  MISS %:    13.6872   MPKI: 4.95477
L2C WRITEBACK ACCESS:     299074  HIT:     144770  MISS:     154304  HIT %:    48.4061  MISS %:    51.5939   MPKI: 0.765411
PSCL5 TOTAL     ACCESS:    1187849  HIT:    1187849  MISS:          0  HIT %:        100  MISS %:          0   MPKI: 0
PSCL5 LOAD      ACCESS:          0  HIT:          0  MISS:          0  HIT %:       -nan  MISS %:       -nan   MPKI: 0
PSCL5 RFO       ACCESS:          0  HIT:          0  MISS:          0  HIT %:       -nan  MISS %:       -nan   MPKI: 0
PSCL5 PREFETCH  ACCESS:          0  HIT:          0  MISS:          0  HIT %:       -nan  MISS %:       -nan   MPKI: 0
PSCL5 WRITEBACK ACCESS:          0  HIT:          0  MISS:          0  HIT %:       -nan  MISS %:       -nan   MPKI: 0
PSCL4 TOTAL     ACCESS:    1187842  HIT:    1187842  MISS:          0  HIT %:        100  MISS %:          0   MPKI: 0
PSCL4 LOAD      ACCESS:          0  HIT:          0  MISS:          0  HIT %:       -nan  MISS %:       -nan   MPKI: 0
PSCL4 RFO       ACCESS:          0  HIT:          0  MISS:          0  HIT %:       -nan  MISS %:       -nan   MPKI: 0
PSCL4 PREFETCH  ACCESS:          0  HIT:          0  MISS:          0  HIT %:       -nan  MISS %:       -nan   MPKI: 0
PSCL4 WRITEBACK ACCESS:          0  HIT:          0  MISS:          0  HIT %:       -nan  MISS %:       -nan   MPKI: 0
PSCL3 TOTAL     ACCESS:    1187842  HIT:    1187842  MISS:          0  HIT %:        100  MISS %:          0   MPKI: 0
PSCL3 LOAD      ACCESS:          0  HIT:          0  MISS:          0  HIT %:       -nan  MISS %:       -nan   MPKI: 0
PSCL3 RFO       ACCESS:          0  HIT:          0  MISS:          0  HIT %:       -nan  MISS %:       -nan   MPKI: 0
PSCL3 PREFETCH  ACCESS:          0  HIT:          0  MISS:          0  HIT %:       -nan  MISS %:       -nan   MPKI: 0
PSCL3 WRITEBACK ACCESS:          0  HIT:          0  MISS:          0  HIT %:       -nan  MISS %:       -nan   MPKI: 0
PSCL2 TOTAL     ACCESS:    1186820  HIT:    1186784  MISS:         36  HIT %:     99.997  MISS %: 0.00303332   MPKI: 0.000178575
PSCL2 LOAD      ACCESS:          0  HIT:          0  MISS:          0  HIT %:       -nan  MISS %:       -nan   MPKI: 0
PSCL2 RFO       ACCESS:          0  HIT:          0  MISS:          0  HIT %:       -nan  MISS %:       -nan   MPKI: 0
PSCL2 PREFETCH  ACCESS:          0  HIT:          0  MISS:          0  HIT %:       -nan  MISS %:       -nan   MPKI: 0
PSCL2 WRITEBACK ACCESS:          0  HIT:          0  MISS:          0  HIT %:       -nan  MISS %:       -nan   MPKI: 0
LLC TOTAL     ACCESS:   10272831  HIT:    6609673  MISS:    3663158  HIT %:    64.3413  MISS %:    35.6587   MPKI: 18.1708
LLC LOAD      ACCESS:    8650949  HIT:    6176060  MISS:    2474889  HIT %:    71.3917  MISS %:    28.6083   MPKI: 12.2765
LLC RFO       ACCESS:     191093  HIT:          0  MISS:     191093  HIT %:          0  MISS %:        100   MPKI: 0.947899
LLC PREFETCH  ACCESS:    1027933  HIT:      58967  MISS:     968966  HIT %:    5.73646  MISS %:    94.2635   MPKI: 4.80647
LLC WRITEBACK ACCESS:     301584  HIT:     280701  MISS:      20883  HIT %:    93.0756  MISS %:    6.92444   MPKI: 0.103588

RAW hits: 7473540
Loads Generated: 80299125
Loads sent to L1D: 72825585
Stores Generated: 11295912
Stores sent to L1D: 11295913

CPU 3 cumulative IPC: 0.450138 instructions: 200485496 cycles: 445386811
ITLB TOTAL     ACCESS:   25788813  HIT:   25788811  MISS:          2  HIT %:        100  MISS %: 7.7553e-06   MPKI: 9.97578e-06
ITLB LOAD      ACCESS:          0  HIT:          0  MISS:          0  HIT %:       -nan  MISS %:       -nan   MPKI: 0
ITLB RFO       ACCESS:          0  HIT:          0  MISS:          0  HIT %:       -nan  MISS %:       -nan   MPKI: 0
ITLB PREFETCH  ACCESS:          0  HIT:          0  MISS:          0  HIT %:       -nan  MISS %:       -nan   MPKI: 0
ITLB WRITEBACK ACCESS:          0  HIT:          0  MISS:          0  HIT %:       -nan  MISS %:       -nan   MPKI: 0
DTLB TOTAL     ACCESS:   49984324  HIT:   37241777  MISS:   12742547  HIT %:    74.5069  MISS %:    25.4931   MPKI: 63.5584
DTLB LOAD      ACCESS:          0  HIT:          0  MISS:          0  HIT %:       -nan  MISS %:       -nan   MPKI: 0
DTLB RFO       ACCESS:          0  HIT:          0  MISS:          0  HIT %:       -nan  MISS %:       -nan   MPKI: 0
DTLB PREFETCH  ACCESS:          0  HIT:          0  MISS:          0  HIT %:       -nan  MISS %:       -nan   MPKI: 0
DTLB WRITEBACK ACCESS:          0  HIT:          0  MISS:          0  HIT %:       -nan  MISS %:       -nan   MPKI: 0
STLB TOTAL     ACCESS:   19804381  HIT:   19236381  MISS:     568000  HIT %:    97.1319  MISS %:    2.86805   MPKI: 2.83312
STLB LOAD      ACCESS:          0  HIT:          0  MISS:          0  HIT %:       -nan  MISS %:       -nan   MPKI: 0
STLB RFO       ACCESS:          0  HIT:          0  MISS:          0  HIT %:       -nan  MISS %:       -nan   MPKI: 0
STLB PREFETCH  ACCESS:          0  HIT:          0  MISS:          0  HIT %:       -nan  MISS %:       -nan   MPKI: 0
STLB WRITEBACK ACCESS:          0  HIT:          0  MISS:          0  HIT %:       -nan  MISS %:       -nan   MPKI: 0
L1D TOTAL     ACCESS:   85346681  HIT:   67706768  MISS:   17639913  HIT %:    79.3315  MISS %:    20.6685   MPKI: 87.986
L1D LOAD      ACCESS:   44339295  HIT:   27756940  MISS:   16582355  HIT %:    62.6012  MISS %:    37.3988   MPKI: 82.711
L1D RFO       ACCESS:    8138418  HIT:    7947318  MISS:     191100  HIT %:    97.6519  MISS %:    2.34812   MPKI: 0.953186
L1D PREFETCH  ACCESS:   32868968  HIT:   32002510  MISS:     866458  HIT %:    97.3639  MISS %:     2.6361   MPKI: 4.3218
L1D WRITEBACK ACCESS:          0  HIT:          0  MISS:          0  HIT %:       -nan  MISS %:       -nan   MPKI: 0
L1I TOTAL     ACCESS:   27606870  HIT:   27606852  MISS:         18  HIT %:    99.9999  MISS %: 6.52012e-05   MPKI: 8.97821e-05
L1I LOAD      ACCESS:   27606870  HIT:   27606852  MISS:         18  HIT %:    99.9999  MISS %: 6.52012e-05   MPKI: 8.97821e-05
L1I RFO       ACCESS:          0  HIT:          0  MISS:          0  HIT %:       -nan  MISS %:       -nan   MPKI: 0
L1I PREFETCH  ACCESS:          0  HIT:          0  MISS:          0  HIT %:       -nan  MISS %:       -nan   MPKI: 0
L1I WRITEBACK ACCESS:          0  HIT:          0  MISS:          0  HIT %:       -nan  MISS %:       -nan   MPKI: 0
L2C TOTAL     ACCESS:   25493978  HIT:   15427015  MISS:   10066963  HIT %:    60.5124  MISS %:    39.4876   MPKI: 50.2129
L2C LOAD      ACCESS:   16574957  HIT:    7899118  MISS:    8675839  HIT %:    47.6569  MISS %:    52.3431   MPKI: 43.2741
L2C RFO       ACCESS:     191100  HIT:          0  MISS:     191100  HIT %:          0  MISS %:        100   MPKI: 0.953186
L2C PREFETCH  ACCESS:    7273438  HIT:    6315765  MISS:     957673  HIT %:    86.8333  MISS %:    13.1667   MPKI: 4.77677
L2C WRITEBACK ACCESS:     268216  HIT:     124325  MISS:     143891  HIT %:    46.3526  MISS %:    53.6474   MPKI: 0.717713
PSCL5 TOTAL     ACCESS:    1186257  HIT:    1186257  MISS:          0  HIT %:        100  MISS %:          0   MPKI: 0
PSCL5 LOAD      ACCESS:          0  HIT:          0  MISS:          0  HIT %:       -nan  MISS %:       -nan   MPKI: 0
PSCL5 RFO       ACCESS:          0  HIT:          0  MISS:          0  HIT %:       -nan  MISS %:       -nan   MPKI: 0
PSCL5 PREFETCH  ACCESS:          0  HIT:          0  MISS:          0  HIT %:       -nan  MISS %:       -nan   MPKI: 0
PSCL5 WRITEBACK ACCESS:          0  HIT:          0  MISS:          0  HIT %:       -nan  MISS %:       -nan   MPKI: 0
PSCL4 TOTAL     ACCESS:    1186250  HIT:    1186250  MISS:          0  HIT %:        100  MISS %:          0   MPKI: 0
PSCL4 LOAD      ACCESS:          0  HIT:          0  MISS:          0  HIT %:       -nan  MISS %:       -nan   MPKI: 0
PSCL4 RFO       ACCESS:          0  HIT:          0  MISS:          0  HIT %:       -nan  MISS %:       -nan   MPKI: 0
PSCL4 PREFETCH  ACCESS:          0  HIT:          0  MISS:          0  HIT %:       -nan  MISS %:       -nan   MPKI: 0
PSCL4 WRITEBACK ACCESS:          0  HIT:          0  MISS:          0  HIT %:       -nan  MISS %:       -nan   MPKI: 0
PSCL3 TOTAL     ACCESS:    1186250  HIT:    1186250  MISS:          0  HIT %:        100  MISS %:          0   MPKI: 0
PSCL3 LOAD      ACCESS:          0  HIT:          0  MISS:          0  HIT %:       -nan  MISS %:       -nan   MPKI: 0
PSCL3 RFO       ACCESS:          0  HIT:          0  MISS:          0  HIT %:       -nan  MISS %:       -nan   MPKI: 0
PSCL3 PREFETCH  ACCESS:          0  HIT:          0  MISS:          0  HIT %:       -nan  MISS %:       -nan   MPKI: 0
PSCL3 WRITEBACK ACCESS:          0  HIT:          0  MISS:          0  HIT %:       -nan  MISS %:       -nan   MPKI: 0
PSCL2 TOTAL     ACCESS:    1185184  HIT:    1185150  MISS:         34  HIT %:    99.9971  MISS %: 0.00286875   MPKI: 0.000169588
PSCL2 LOAD      ACCESS:          0  HIT:          0  MISS:          0  HIT %:       -nan  MISS %:       -nan   MPKI: 0
PSCL2 RFO       ACCESS:          0  HIT:          0  MISS:          0  HIT %:       -nan  MISS %:       -nan   MPKI: 0
PSCL2 PREFETCH  ACCESS:          0  HIT:          0  MISS:          0  HIT %:       -nan  MISS %:       -nan   MPKI: 0
PSCL2 WRITEBACK ACCESS:          0  HIT:          0  MISS:          0  HIT %:       -nan  MISS %:       -nan   MPKI: 0
LLC TOTAL     ACCESS:   10194075  HIT:    6581072  MISS:    3613003  HIT %:    64.5578  MISS %:    35.4422   MPKI: 18.0213
LLC LOAD      ACCESS:    8663643  HIT:    6179166  MISS:    2484477  HIT %:     71.323  MISS %:     28.677   MPKI: 12.3923
LLC RFO       ACCESS:     191100  HIT:          0  MISS:     191100  HIT %:          0  MISS %:        100   MPKI: 0.953186
LLC PREFETCH  ACCESS:     969869  HIT:      59408  MISS:     910461  HIT %:    6.12536  MISS %:    93.8746   MPKI: 4.54128
LLC WRITEBACK ACCESS:     271003  HIT:     250682  MISS:      20321  HIT %:    92.5016  MISS %:    7.49844   MPKI: 0.101359

RAW hits: 7478355
Loads Generated: 79928795
Loads sent to L1D: 72450440
Stores Generated: 11172502
Stores sent to L1D: 11172504

Region of Interest Statistics

CPU 0 cumulative IPC: 0.455525 instructions: 200000002 cycles: 439053847
ITLB TOTAL     ACCESS:   25733574  HIT:   25733572  MISS:          2  HIT %:        100  MISS %: 7.77195e-06   MPKI: 1e-05
ITLB LOAD TRANSLATION ACCESS:   25733574  HIT:   25733572  MISS:          2  HIT %:        100  MISS %: 7.77195e-06   MPKI: 1e-05
ITLB PREFETCH  REQUESTED:          0  ISSUED:          0  USEFUL:          0  USELESS:          0
ITLB USEFUL LOAD PREFETCHES:          0 PREFETCH ISSUED TO LOWER LEVEL:          0  ACCURACY: -nan
ITLB TIMELY PREFETCHES:          0 LATE PREFETCHES: 0 DROPPED PREFETCHES: 0
ITLB PREFETCHES SAME FILL-ORIGIN LEVEL: 0 DIFFERENT FILL-ORIGIN LEVEL: 0
ITLB AVERAGE MISS LATENCY: 2092 cycles
ITLB RQ	ACCESS:   27991266	FORWARD:          0	MERGED:    1982645	TO_CACHE:   26008621

DTLB TOTAL     ACCESS:   49880051  HIT:   37137659  MISS:   12742392  HIT %:    74.4539  MISS %:    25.5461   MPKI: 63.712
DTLB LOAD TRANSLATION ACCESS:   49880051  HIT:   37137659  MISS:   12742392  HIT %:    74.4539  MISS %:    25.5461   MPKI: 63.712
DTLB PREFETCH  REQUESTED:          0  ISSUED:          0  USEFUL:          0  USELESS:          0
DTLB USEFUL LOAD PREFETCHES:          0 PREFETCH ISSUED TO LOWER LEVEL:          0  ACCURACY: -nan
DTLB TIMELY PREFETCHES:          0 LATE PREFETCHES: 0 DROPPED PREFETCHES: 0
DTLB PREFETCHES SAME FILL-ORIGIN LEVEL: 0 DIFFERENT FILL-ORIGIN LEVEL: 0
DTLB AVERAGE MISS LATENCY: 11.5428 cycles
DTLB RQ	ACCESS:   54334692	FORWARD:          0	MERGED:    3104619	TO_CACHE:   51230073

STLB TOTAL     ACCESS:   19747491  HIT:   19179912  MISS:     567579  HIT %:    97.1258  MISS %:    2.87418   MPKI: 2.83789
STLB LOAD TRANSLATION ACCESS:   12742394  HIT:   12176115  MISS:     566279  HIT %:    95.5559  MISS %:    4.44406   MPKI: 2.83139
STLB TRANSLATION FROM L1D PREFETCHER ACCESS:    7005097  HIT:    7003797  MISS:       1300  HIT %:    99.9814  MISS %:  0.0185579   MPKI: 0.0065
STLB PREFETCH  REQUESTED:          0  ISSUED:          0  USEFUL:       2502  USELESS:        144
STLB USEFUL LOAD PREFETCHES:       2502 PREFETCH ISSUED TO LOWER LEVEL:          0  ACCURACY: inf
STLB TIMELY PREFETCHES:       2502 LATE PREFETCHES: 1259 DROPPED PREFETCHES: 615835
STLB PREFETCHES SAME FILL-ORIGIN LEVEL: 0 DIFFERENT FILL-ORIGIN LEVEL: 0
STLB AVERAGE MISS LATENCY: 46.0814 cycles
STLB RQ	ACCESS:   56097605	FORWARD:          0	MERGED:   35580041	TO_CACHE:   20517564

STLB Hit, L1D data hit: 0
STLB Hit, L2C data hit: 0
STLB Hit, LLC data hit: 0
STLB Hit, LLC data miss: 0
STLB STLB hints to L2: 0
L1D TOTAL     ACCESS:   85199973  HIT:   67588332  MISS:   17611641  HIT %:    79.3291  MISS %:    20.6709   MPKI: 88.0582
L1D LOAD      ACCESS:   44282133  HIT:   27726936  MISS:   16555197  HIT %:    62.6143  MISS %:    37.3857   MPKI: 82.776
L1D RFO       ACCESS:    8092341  HIT:    7901257  MISS:     191084  HIT %:    97.6387  MISS %:    2.36129   MPKI: 0.95542
L1D PREFETCH  ACCESS:   32825499  HIT:   31960139  MISS:     865360  HIT %:    97.3638  MISS %:    2.63624   MPKI: 4.3268
L1D PREFETCH  REQUESTED:  102152985  ISSUED:  101626283  USEFUL:     847946  USELESS:      24262
L1D USEFUL LOAD PREFETCHES:     847946 PREFETCH ISSUED TO LOWER LEVEL:    8086882  ACCURACY: 10.4855
L1D TIMELY PREFETCHES:     847946 LATE PREFETCHES: 9605 DROPPED PREFETCHES: 1872148
L1D PREFETCHES SAME FILL-ORIGIN LEVEL: 881859 DIFFERENT FILL-ORIGIN LEVEL: 7205023
L1D AVERAGE MISS LATENCY: 109.414 cycles
L1D RQ	ACCESS:   72896645	FORWARD:          0	MERGED:   28177163	TO_CACHE:   44702157
L1D WQ	ACCESS:   11321178	FORWARD:      17325	MERGED:    1688643	TO_CACHE:    9632535
L1D PQ	ACCESS:   58272654	FORWARD:          0	MERGED:   14919025	TO_CACHE:   43353629

L1D UNIQUE REGIONS ACCESSED: 0
L1D REGIONS CONFLICTS: 0
L1D Cross Page Prefetch Requests: 9888498
L1D Same Page Prefetch Requests: 109805405
L1D ROI Sum of L1D PQ occupancy: 698233124
L1D PREFETCHES PUSHED FROM L2C: 0
L1I TOTAL     ACCESS:   27518895  HIT:   27518877  MISS:         18  HIT %:    99.9999  MISS %: 6.54096e-05   MPKI: 9e-05
L1I LOAD      ACCESS:   27518895  HIT:   27518877  MISS:         18  HIT %:    99.9999  MISS %: 6.54096e-05   MPKI: 9e-05
L1I PREFETCH  REQUESTED:          0  ISSUED:          0  USEFUL:          0  USELESS:          0
L1I USEFUL LOAD PREFETCHES:          0 PREFETCH ISSUED TO LOWER LEVEL:          0  ACCURACY: -nan
L1I TIMELY PREFETCHES:          0 LATE PREFETCHES: 0 DROPPED PREFETCHES: 0
L1I PREFETCHES SAME FILL-ORIGIN LEVEL: 0 DIFFERENT FILL-ORIGIN LEVEL: 0
L1I AVERAGE MISS LATENCY: 1532.28 cycles
L1I RQ	ACCESS:   47584367	FORWARD:          0	MERGED:   19593101	TO_CACHE:   27991266

BTB TOTAL     ACCESS:   12638428  HIT:   12638411  MISS:         17  HIT %:    99.9999  MISS %: 0.00013451   MPKI: 8.5e-05
BTB BRANCH_DIRECT_JUMP	ACCESS:          1  HIT:          0  MISS:          1
BTB BRANCH_INDIRECT	ACCESS:          0  HIT:          0  MISS:          0
BTB BRANCH_CONDITIONAL	ACCESS:   12638423  HIT:   12638411  MISS:         12
BTB BRANCH_DIRECT_CALL	ACCESS:          3  HIT:          0  MISS:          3
BTB BRANCH_INDIRECT_CALL	ACCESS:          0  HIT:          0  MISS:          0
BTB BRANCH_RETURN	ACCESS:          1  HIT:          0  MISS:          1
BTB BRANCH_OTHER ACCESS:          0  HIT:          0  MISS:          0

L2C TOTAL     ACCESS:   25371485  HIT:   15416656  MISS:    9954829  HIT %:    60.7637  MISS %:    39.2363   MPKI: 49.7741
L2C LOAD      ACCESS:   16548399  HIT:    7954980  MISS:    8593419  HIT %:     48.071  MISS %:     51.929   MPKI: 42.9671
L2C DATA LOAD MPKI: 42.967
L2C INSTRUCTION LOAD MPKI: 9e-05
L2C RFO       ACCESS:     191084  HIT:          0  MISS:     191084  HIT %:          0  MISS %:        100   MPKI: 0.95542
L2C PREFETCH  ACCESS:    7192309  HIT:    6256072  MISS:     936237  HIT %:    86.9828  MISS %:    13.0172   MPKI: 4.68118
L2C DATA PREFETCH MPKI: 4.68118
L2C INSTRUCTION PREFETCH MPKI: 0
L2C WRITEBACK ACCESS:     255091  HIT:     112429  MISS:     142662  HIT %:    44.0741  MISS %:    55.9259   MPKI: 0.71331
L2C LOAD TRANSLATION ACCESS:     566281  HIT:     477808  MISS:      88473  HIT %:    84.3765  MISS %:    15.6235   MPKI: 0.442365
L2C TRANSLATION FROM L1D PREFETCHER ACCESS:     618321  HIT:     615367  MISS:       2954  HIT %:    99.5223  MISS %:   0.477745   MPKI: 0.01477
L2C PREFETCH  REQUESTED:          0  ISSUED:          0  USEFUL:     153989  USELESS:     854735
L2C USEFUL LOAD PREFETCHES:     153989 PREFETCH ISSUED TO LOWER LEVEL:    1037361  ACCURACY: 14.8443
L2C TIMELY PREFETCHES:     153989 LATE PREFETCHES: 32573 DROPPED PREFETCHES: 0
L2C PREFETCHES SAME FILL-ORIGIN LEVEL: 451930 DIFFERENT FILL-ORIGIN LEVEL: 0
L2C AVERAGE MISS LATENCY: 187.129 cycles
L2C RQ	ACCESS:   18017244	FORWARD:          0	MERGED:          0	TO_CACHE:   18017244
L2C WQ	ACCESS:     305397	FORWARD:          0	MERGED:          0	TO_CACHE:     305397
L2C PQ	ACCESS:    8085638	FORWARD:          0	MERGED:      20269	TO_CACHE:    8065369

L2C Instructions Evicting Data 18
L2C Translations Evicting Data 88998
L2C Data Evicting Data 9733017
L2C Instructions Evicting Instructions 0
L2C Translations Evicting Instructions 0
L2C Data Evicting Instructions 18
L2C Instructions Evicting Translations 0
L2C Translations Evicting Translations 2621
L2C Data Evicting Translations 88892
L2C Dense regions hint from L2: 0
PSCL5 TOTAL     ACCESS:    1184589  HIT:    1184589  MISS:          0  HIT %:        100  MISS %:          0   MPKI: 0
PSCL5 LOAD TRANSLATION ACCESS:     566276  HIT:     566276  MISS:          0  HIT %:        100  MISS %:          0   MPKI: 0
PSCL5 TRANSLATION FROM L1D PREFETCHER ACCESS:     618313  HIT:     618313  MISS:          0  HIT %:        100  MISS %:          0   MPKI: 0
PSCL5 PREFETCH  REQUESTED:          0  ISSUED:          0  USEFUL:          0  USELESS:          0
PSCL5 USEFUL LOAD PREFETCHES:          0 PREFETCH ISSUED TO LOWER LEVEL:          0  ACCURACY: -nan
PSCL5 TIMELY PREFETCHES:          0 LATE PREFETCHES: 0 DROPPED PREFETCHES: 0
PSCL5 PREFETCHES SAME FILL-ORIGIN LEVEL: 0 DIFFERENT FILL-ORIGIN LEVEL: 0

PSCL4 TOTAL     ACCESS:    1184582  HIT:    1184582  MISS:          0  HIT %:        100  MISS %:          0   MPKI: 0
PSCL4 LOAD TRANSLATION ACCESS:     566276  HIT:     566276  MISS:          0  HIT %:        100  MISS %:          0   MPKI: 0
PSCL4 TRANSLATION FROM L1D PREFETCHER ACCESS:     618306  HIT:     618306  MISS:          0  HIT %:        100  MISS %:          0   MPKI: 0
PSCL4 PREFETCH  REQUESTED:          0  ISSUED:          0  USEFUL:          0  USELESS:          0
PSCL4 USEFUL LOAD PREFETCHES:          0 PREFETCH ISSUED TO LOWER LEVEL:          0  ACCURACY: -nan
PSCL4 TIMELY PREFETCHES:          0 LATE PREFETCHES: 0 DROPPED PREFETCHES: 0
PSCL4 PREFETCHES SAME FILL-ORIGIN LEVEL: 0 DIFFERENT FILL-ORIGIN LEVEL: 0

PSCL3 TOTAL     ACCESS:    1184582  HIT:    1184582  MISS:          0  HIT %:        100  MISS %:          0   MPKI: 0
PSCL3 LOAD TRANSLATION ACCESS:     566276  HIT:     566276  MISS:          0  HIT %:        100  MISS %:          0   MPKI: 0
PSCL3 TRANSLATION FROM L1D PREFETCHER ACCESS:     618306  HIT:     618306  MISS:          0  HIT %:        100  MISS %:          0   MPKI: 0
PSCL3 PREFETCH  REQUESTED:          0  ISSUED:          0  USEFUL:          0  USELESS:          0
PSCL3 USEFUL LOAD PREFETCHES:          0 PREFETCH ISSUED TO LOWER LEVEL:          0  ACCURACY: -nan
PSCL3 TIMELY PREFETCHES:          0 LATE PREFETCHES: 0 DROPPED PREFETCHES: 0
PSCL3 PREFETCHES SAME FILL-ORIGIN LEVEL: 0 DIFFERENT FILL-ORIGIN LEVEL: 0

PSCL2 TOTAL     ACCESS:    1183609  HIT:    1183575  MISS:         34  HIT %:    99.9971  MISS %: 0.00287257   MPKI: 0.00017
PSCL2 LOAD TRANSLATION ACCESS:     566279  HIT:     566245  MISS:         34  HIT %:     99.994  MISS %: 0.00600411   MPKI: 0.00017
PSCL2 TRANSLATION FROM L1D PREFETCHER ACCESS:     617330  HIT:     617330  MISS:          0  HIT %:        100  MISS %:          0   MPKI: 0
PSCL2 PREFETCH  REQUESTED:          0  ISSUED:          0  USEFUL:          0  USELESS:          0
PSCL2 USEFUL LOAD PREFETCHES:          0 PREFETCH ISSUED TO LOWER LEVEL:          0  ACCURACY: -nan
PSCL2 TIMELY PREFETCHES:          0 LATE PREFETCHES: 0 DROPPED PREFETCHES: 0
PSCL2 PREFETCHES SAME FILL-ORIGIN LEVEL: 0 DIFFERENT FILL-ORIGIN LEVEL: 0

LLC TOTAL     ACCESS:   10073312  HIT:    6503499  MISS:    3569813  HIT %:    64.5617  MISS %:    35.4383   MPKI: 17.8491
LLC LOAD      ACCESS:    8588736  HIT:    6123679  MISS:    2465057  HIT %:     71.299  MISS %:     28.701   MPKI: 12.3253
LLC RFO       ACCESS:     191084  HIT:          0  MISS:     191084  HIT %:          0  MISS %:        100   MPKI: 0.95542
LLC PREFETCH  ACCESS:     940920  HIT:      55200  MISS:     885720  HIT %:     5.8666  MISS %:    94.1334   MPKI: 4.4286
LLC WRITEBACK ACCESS:     261145  HIT:     240939  MISS:      20206  HIT %:    92.2625  MISS %:    7.73746   MPKI: 0.10103
LLC LOAD TRANSLATION ACCESS:      88473  HIT:      82609  MISS:       5864  HIT %:     93.372  MISS %:    6.62801   MPKI: 0.02932
LLC TRANSLATION FROM L1D PREFETCHER ACCESS:       2954  HIT:       1072  MISS:       1882  HIT %:    36.2898  MISS %:    63.7102   MPKI: 0.00941
LLC PREFETCH  REQUESTED:          0  ISSUED:          0  USEFUL:     294193  USELESS:    3384172
LLC USEFUL LOAD PREFETCHES:     294193 PREFETCH ISSUED TO LOWER LEVEL:   36640880  ACCURACY: 0.802909
LLC TIMELY PREFETCHES:     294193 LATE PREFETCHES: 0 DROPPED PREFETCHES: 0
LLC PREFETCHES SAME FILL-ORIGIN LEVEL: 0 DIFFERENT FILL-ORIGIN LEVEL: 0
LLC AVERAGE MISS LATENCY: 1730.9 cycles
LLC RQ	ACCESS:   35733112	FORWARD:          0	MERGED:          0	TO_CACHE:   35733112
LLC WQ	ACCESS:    1141597	FORWARD:          0	MERGED:          0	TO_CACHE:    1141597
LLC PQ	ACCESS:    3977442	FORWARD:          0	MERGED:          0	TO_CACHE:    3977442

LLC Dense regions hint to LLC: 0

RAW hits: 7478386
Loads Generated: 79767118
Loads sent to L1D: 72288732
Stores Generated: 11118534
Stores sent to L1D: 11118533
Major fault: 0 Minor fault: 29197
Allocated PAGES: 116788

CPU 1 cumulative IPC: 0.449048 instructions: 200000002 cycles: 445386811
ITLB TOTAL     ACCESS:   25706859  HIT:   25706857  MISS:          2  HIT %:        100  MISS %: 7.78002e-06   MPKI: 1e-05
ITLB LOAD TRANSLATION ACCESS:   25706859  HIT:   25706857  MISS:          2  HIT %:        100  MISS %: 7.78002e-06   MPKI: 1e-05
ITLB PREFETCH  REQUESTED:          0  ISSUED:          0  USEFUL:          0  USELESS:          0
ITLB USEFUL LOAD PREFETCHES:          0 PREFETCH ISSUED TO LOWER LEVEL:          0  ACCURACY: -nan
ITLB TIMELY PREFETCHES:          0 LATE PREFETCHES: 0 DROPPED PREFETCHES: 0
ITLB PREFETCHES SAME FILL-ORIGIN LEVEL: 0 DIFFERENT FILL-ORIGIN LEVEL: 0
ITLB AVERAGE MISS LATENCY: 873 cycles
ITLB RQ	ACCESS:   27460982	FORWARD:          0	MERGED:    1754124	TO_CACHE:   25706858

DTLB TOTAL     ACCESS:   49858947  HIT:   37116513  MISS:   12742434  HIT %:     74.443  MISS %:     25.557   MPKI: 63.7122
DTLB LOAD TRANSLATION ACCESS:   49858947  HIT:   37116513  MISS:   12742434  HIT %:     74.443  MISS %:     25.557   MPKI: 63.7122
DTLB PREFETCH  REQUESTED:          0  ISSUED:          0  USEFUL:          0  USELESS:          0
DTLB USEFUL LOAD PREFETCHES:          0 PREFETCH ISSUED TO LOWER LEVEL:          0  ACCURACY: -nan
DTLB TIMELY PREFETCHES:          0 LATE PREFETCHES: 0 DROPPED PREFETCHES: 0
DTLB PREFETCHES SAME FILL-ORIGIN LEVEL: 0 DIFFERENT FILL-ORIGIN LEVEL: 0
DTLB AVERAGE MISS LATENCY: 11.6303 cycles
DTLB RQ	ACCESS:   53856129	FORWARD:          0	MERGED:    3066149	TO_CACHE:   50789980

STLB TOTAL     ACCESS:   19751709  HIT:   19184163  MISS:     567546  HIT %:    97.1266  MISS %:     2.8734   MPKI: 2.83773
STLB LOAD TRANSLATION ACCESS:   12742436  HIT:   12176178  MISS:     566258  HIT %:    95.5561  MISS %:    4.44388   MPKI: 2.83129
STLB TRANSLATION FROM L1D PREFETCHER ACCESS:    7009273  HIT:    7007985  MISS:       1288  HIT %:    99.9816  MISS %:  0.0183757   MPKI: 0.00644
STLB PREFETCH  REQUESTED:          0  ISSUED:          0  USEFUL:       1158  USELESS:        130
STLB USEFUL LOAD PREFETCHES:       1158 PREFETCH ISSUED TO LOWER LEVEL:          0  ACCURACY: inf
STLB TIMELY PREFETCHES:       1158 LATE PREFETCHES: 1149 DROPPED PREFETCHES: 615835
STLB PREFETCHES SAME FILL-ORIGIN LEVEL: 0 DIFFERENT FILL-ORIGIN LEVEL: 0
STLB AVERAGE MISS LATENCY: 47.8655 cycles
STLB RQ	ACCESS:   55693495	FORWARD:          0	MERGED:   35291284	TO_CACHE:   20402211

STLB Hit, L1D data hit: 0
STLB Hit, L2C data hit: 0
STLB Hit, LLC data hit: 0
STLB Hit, LLC data miss: 0
STLB STLB hints to L2: 0
L1D TOTAL     ACCESS:   85177874  HIT:   67566288  MISS:   17611586  HIT %:    79.3238  MISS %:    20.6762   MPKI: 88.0579
L1D LOAD      ACCESS:   44282581  HIT:   27727239  MISS:   16555342  HIT %:    62.6143  MISS %:    37.3857   MPKI: 82.7767
L1D RFO       ACCESS:    8075440  HIT:    7884362  MISS:     191078  HIT %:    97.6338  MISS %:    2.36616   MPKI: 0.95539
L1D PREFETCH  ACCESS:   32819853  HIT:   31954687  MISS:     865166  HIT %:    97.3639  MISS %:    2.63611   MPKI: 4.32583
L1D PREFETCH  REQUESTED:  101106344  ISSUED:  100572326  USEFUL:     840809  USELESS:      24347
L1D USEFUL LOAD PREFETCHES:     840809 PREFETCH ISSUED TO LOWER LEVEL:    7743040  ACCURACY: 10.8589
L1D TIMELY PREFETCHES:     840809 LATE PREFETCHES: 6791 DROPPED PREFETCHES: 1873393
L1D PREFETCHES SAME FILL-ORIGIN LEVEL: 871964 DIFFERENT FILL-ORIGIN LEVEL: 6871076
L1D AVERAGE MISS LATENCY: 110.166 cycles
L1D RQ	ACCESS:   72288352	FORWARD:          0	MERGED:   27828385	TO_CACHE:   44443181
L1D WQ	ACCESS:   11118522	FORWARD:      16786	MERGED:    1705574	TO_CACHE:    9412948
L1D PQ	ACCESS:   57621267	FORWARD:          0	MERGED:   14670208	TO_CACHE:   42951059

L1D UNIQUE REGIONS ACCESSED: 0
L1D REGIONS CONFLICTS: 0
L1D Cross Page Prefetch Requests: 9851584
L1D Same Page Prefetch Requests: 109213801
L1D ROI Sum of L1D PQ occupancy: 690340652
L1D PREFETCHES PUSHED FROM L2C: 0
L1I TOTAL     ACCESS:   27460979  HIT:   27460961  MISS:         18  HIT %:    99.9999  MISS %: 6.55476e-05   MPKI: 9e-05
L1I LOAD      ACCESS:   27460979  HIT:   27460961  MISS:         18  HIT %:    99.9999  MISS %: 6.55476e-05   MPKI: 9e-05
L1I PREFETCH  REQUESTED:          0  ISSUED:          0  USEFUL:          0  USELESS:          0
L1I USEFUL LOAD PREFETCHES:          0 PREFETCH ISSUED TO LOWER LEVEL:          0  ACCURACY: -nan
L1I TIMELY PREFETCHES:          0 LATE PREFETCHES: 0 DROPPED PREFETCHES: 0
L1I PREFETCHES SAME FILL-ORIGIN LEVEL: 0 DIFFERENT FILL-ORIGIN LEVEL: 0
L1I AVERAGE MISS LATENCY: 756.889 cycles
L1I RQ	ACCESS:   47102536	FORWARD:          0	MERGED:   19641554	TO_CACHE:   27460982

BTB TOTAL     ACCESS:   12638414  HIT:   12638397  MISS:         17  HIT %:    99.9999  MISS %: 0.000134511   MPKI: 8.5e-05
BTB BRANCH_DIRECT_JUMP	ACCESS:          1  HIT:          0  MISS:          1
BTB BRANCH_INDIRECT	ACCESS:          0  HIT:          0  MISS:          0
BTB BRANCH_CONDITIONAL	ACCESS:   12638409  HIT:   12638397  MISS:         12
BTB BRANCH_DIRECT_CALL	ACCESS:          3  HIT:          0  MISS:          3
BTB BRANCH_INDIRECT_CALL	ACCESS:          0  HIT:          0  MISS:          0
BTB BRANCH_RETURN	ACCESS:          1  HIT:          0  MISS:          1
BTB BRANCH_OTHER ACCESS:          0  HIT:          0  MISS:          0

L2C TOTAL     ACCESS:   25370262  HIT:   15324303  MISS:   10045959  HIT %:    60.4026  MISS %:    39.5974   MPKI: 50.2298
L2C LOAD      ACCESS:   16548569  HIT:    7908147  MISS:    8640422  HIT %:    47.7875  MISS %:    52.2125   MPKI: 43.2021
L2C DATA LOAD MPKI: 43.202
L2C INSTRUCTION LOAD MPKI: 9e-05
L2C RFO       ACCESS:     191078  HIT:          0  MISS:     191078  HIT %:          0  MISS %:        100   MPKI: 0.95539
L2C PREFETCH  ACCESS:    7190991  HIT:    6253345  MISS:     937646  HIT %:    86.9608  MISS %:    13.0392   MPKI: 4.68823
L2C DATA PREFETCH MPKI: 4.68823
L2C INSTRUCTION PREFETCH MPKI: 0
L2C WRITEBACK ACCESS:     255085  HIT:     111771  MISS:     143314  HIT %:    43.8172  MISS %:    56.1828   MPKI: 0.71657
L2C LOAD TRANSLATION ACCESS:     566263  HIT:     435762  MISS:     130501  HIT %:     76.954  MISS %:     23.046   MPKI: 0.652505
L2C TRANSLATION FROM L1D PREFETCHER ACCESS:     618276  HIT:     615278  MISS:       2998  HIT %:    99.5151  MISS %:   0.484897   MPKI: 0.01499
L2C PREFETCH  REQUESTED:          0  ISSUED:          0  USEFUL:      95966  USELESS:     845728
L2C USEFUL LOAD PREFETCHES:      95966 PREFETCH ISSUED TO LOWER LEVEL:     942263  ACCURACY: 10.1846
L2C TIMELY PREFETCHES:      95966 LATE PREFETCHES: 4613 DROPPED PREFETCHES: 0
L2C PREFETCHES SAME FILL-ORIGIN LEVEL: 359071 DIFFERENT FILL-ORIGIN LEVEL: 0
L2C AVERAGE MISS LATENCY: 183.522 cycles
L2C RQ	ACCESS:   17924187	FORWARD:          0	MERGED:          0	TO_CACHE:   17924187
L2C WQ	ACCESS:     255085	FORWARD:          0	MERGED:          0	TO_CACHE:     255085
L2C PQ	ACCESS:    7742788	FORWARD:          0	MERGED:       2690	TO_CACHE:    7740098

L2C Instructions Evicting Data 18
L2C Translations Evicting Data 127551
L2C Data Evicting Data 9641972
L2C Instructions Evicting Instructions 0
L2C Translations Evicting Instructions 0
L2C Data Evicting Instructions 18
L2C Instructions Evicting Translations 0
L2C Translations Evicting Translations 5948
L2C Data Evicting Translations 127138
L2C Dense regions hint from L2: 0
PSCL5 TOTAL     ACCESS:    1184529  HIT:    1184529  MISS:          0  HIT %:        100  MISS %:          0   MPKI: 0
PSCL5 LOAD TRANSLATION ACCESS:     566257  HIT:     566257  MISS:          0  HIT %:        100  MISS %:          0   MPKI: 0
PSCL5 TRANSLATION FROM L1D PREFETCHER ACCESS:     618272  HIT:     618272  MISS:          0  HIT %:        100  MISS %:          0   MPKI: 0
PSCL5 PREFETCH  REQUESTED:          0  ISSUED:          0  USEFUL:          0  USELESS:          0
PSCL5 USEFUL LOAD PREFETCHES:          0 PREFETCH ISSUED TO LOWER LEVEL:          0  ACCURACY: -nan
PSCL5 TIMELY PREFETCHES:          0 LATE PREFETCHES: 0 DROPPED PREFETCHES: 0
PSCL5 PREFETCHES SAME FILL-ORIGIN LEVEL: 0 DIFFERENT FILL-ORIGIN LEVEL: 0

PSCL4 TOTAL     ACCESS:    1184522  HIT:    1184522  MISS:          0  HIT %:        100  MISS %:          0   MPKI: 0
PSCL4 LOAD TRANSLATION ACCESS:     566257  HIT:     566257  MISS:          0  HIT %:        100  MISS %:          0   MPKI: 0
PSCL4 TRANSLATION FROM L1D PREFETCHER ACCESS:     618265  HIT:     618265  MISS:          0  HIT %:        100  MISS %:          0   MPKI: 0
PSCL4 PREFETCH  REQUESTED:          0  ISSUED:          0  USEFUL:          0  USELESS:          0
PSCL4 USEFUL LOAD PREFETCHES:          0 PREFETCH ISSUED TO LOWER LEVEL:          0  ACCURACY: -nan
PSCL4 TIMELY PREFETCHES:          0 LATE PREFETCHES: 0 DROPPED PREFETCHES: 0
PSCL4 PREFETCHES SAME FILL-ORIGIN LEVEL: 0 DIFFERENT FILL-ORIGIN LEVEL: 0

PSCL3 TOTAL     ACCESS:    1184522  HIT:    1184522  MISS:          0  HIT %:        100  MISS %:          0   MPKI: 0
PSCL3 LOAD TRANSLATION ACCESS:     566257  HIT:     566257  MISS:          0  HIT %:        100  MISS %:          0   MPKI: 0
PSCL3 TRANSLATION FROM L1D PREFETCHER ACCESS:     618265  HIT:     618265  MISS:          0  HIT %:        100  MISS %:          0   MPKI: 0
PSCL3 PREFETCH  REQUESTED:          0  ISSUED:          0  USEFUL:          0  USELESS:          0
PSCL3 USEFUL LOAD PREFETCHES:          0 PREFETCH ISSUED TO LOWER LEVEL:          0  ACCURACY: -nan
PSCL3 TIMELY PREFETCHES:          0 LATE PREFETCHES: 0 DROPPED PREFETCHES: 0
PSCL3 PREFETCHES SAME FILL-ORIGIN LEVEL: 0 DIFFERENT FILL-ORIGIN LEVEL: 0

PSCL2 TOTAL     ACCESS:    1183384  HIT:    1183350  MISS:         34  HIT %:    99.9971  MISS %: 0.00287312   MPKI: 0.00017
PSCL2 LOAD TRANSLATION ACCESS:     566259  HIT:     566225  MISS:         34  HIT %:     99.994  MISS %: 0.00600432   MPKI: 0.00017
PSCL2 TRANSLATION FROM L1D PREFETCHER ACCESS:     617125  HIT:     617125  MISS:          0  HIT %:        100  MISS %:          0   MPKI: 0
PSCL2 PREFETCH  REQUESTED:          0  ISSUED:          0  USEFUL:          0  USELESS:          0
PSCL2 USEFUL LOAD PREFETCHES:          0 PREFETCH ISSUED TO LOWER LEVEL:          0  ACCURACY: -nan
PSCL2 TIMELY PREFETCHES:          0 LATE PREFETCHES: 0 DROPPED PREFETCHES: 0
PSCL2 PREFETCHES SAME FILL-ORIGIN LEVEL: 0 DIFFERENT FILL-ORIGIN LEVEL: 0

LLC TOTAL     ACCESS:   10163631  HIT:    6559591  MISS:    3604040  HIT %:    64.5398  MISS %:    35.4602   MPKI: 18.0202
LLC LOAD      ACCESS:    8635810  HIT:    6134251  MISS:    2501559  HIT %:    71.0327  MISS %:    28.9673   MPKI: 12.5078
LLC RFO       ACCESS:     191078  HIT:          0  MISS:     191078  HIT %:          0  MISS %:        100   MPKI: 0.95539
LLC PREFETCH  ACCESS:     942258  HIT:      56575  MISS:     885683  HIT %:    6.00419  MISS %:    93.9958   MPKI: 4.42841
LLC WRITEBACK ACCESS:     260986  HIT:     240713  MISS:      20273  HIT %:    92.2322  MISS %:    7.76785   MPKI: 0.101365
LLC LOAD TRANSLATION ACCESS:     130501  HIT:     126900  MISS:       3601  HIT %:    97.2406  MISS %:    2.75937   MPKI: 0.018005
LLC TRANSLATION FROM L1D PREFETCHER ACCESS:       2998  HIT:       1152  MISS:       1846  HIT %:    38.4256  MISS %:    61.5744   MPKI: 0.00923
LLC PREFETCH  REQUESTED:          0  ISSUED:          0  USEFUL:     294193  USELESS:    3384172
LLC USEFUL LOAD PREFETCHES:     294193 PREFETCH ISSUED TO LOWER LEVEL:   36640880  ACCURACY: 0.802909
LLC TIMELY PREFETCHES:     294193 LATE PREFETCHES: 0 DROPPED PREFETCHES: 0
LLC PREFETCHES SAME FILL-ORIGIN LEVEL: 0 DIFFERENT FILL-ORIGIN LEVEL: 0
LLC AVERAGE MISS LATENCY: 1714.47 cycles
LLC RQ	ACCESS:   35733112	FORWARD:          0	MERGED:          0	TO_CACHE:   35733112
LLC WQ	ACCESS:    1141597	FORWARD:          0	MERGED:          0	TO_CACHE:    1141597
LLC PQ	ACCESS:    3977442	FORWARD:          0	MERGED:          0	TO_CACHE:    3977442

LLC Dense regions hint to LLC: 0

RAW hits: 7478837
Loads Generated: 79767189
Loads sent to L1D: 72288352
Stores Generated: 11118522
Stores sent to L1D: 11118522
Major fault: 0 Minor fault: 29197
Allocated PAGES: 116788

CPU 2 cumulative IPC: 0.455018 instructions: 200000003 cycles: 439542711
ITLB TOTAL     ACCESS:   25736558  HIT:   25736556  MISS:          2  HIT %:        100  MISS %: 7.77105e-06   MPKI: 1e-05
ITLB LOAD TRANSLATION ACCESS:   25736558  HIT:   25736556  MISS:          2  HIT %:        100  MISS %: 7.77105e-06   MPKI: 1e-05
ITLB PREFETCH  REQUESTED:          0  ISSUED:          0  USEFUL:          0  USELESS:          0
ITLB USEFUL LOAD PREFETCHES:          0 PREFETCH ISSUED TO LOWER LEVEL:          0  ACCURACY: -nan
ITLB TIMELY PREFETCHES:          0 LATE PREFETCHES: 0 DROPPED PREFETCHES: 0
ITLB PREFETCHES SAME FILL-ORIGIN LEVEL: 0 DIFFERENT FILL-ORIGIN LEVEL: 0
ITLB AVERAGE MISS LATENCY: 1300 cycles
ITLB RQ	ACCESS:   27930326	FORWARD:          0	MERGED:    1953971	TO_CACHE:   25976355

DTLB TOTAL     ACCESS:   49889626  HIT:   37147144  MISS:   12742482  HIT %:    74.4587  MISS %:    25.5413   MPKI: 63.7124
DTLB LOAD TRANSLATION ACCESS:   49889626  HIT:   37147144  MISS:   12742482  HIT %:    74.4587  MISS %:    25.5413   MPKI: 63.7124
DTLB PREFETCH  REQUESTED:          0  ISSUED:          0  USEFUL:          0  USELESS:          0
DTLB USEFUL LOAD PREFETCHES:          0 PREFETCH ISSUED TO LOWER LEVEL:          0  ACCURACY: -nan
DTLB TIMELY PREFETCHES:          0 LATE PREFETCHES: 0 DROPPED PREFETCHES: 0
DTLB PREFETCHES SAME FILL-ORIGIN LEVEL: 0 DIFFERENT FILL-ORIGIN LEVEL: 0
DTLB AVERAGE MISS LATENCY: 11.5715 cycles
DTLB RQ	ACCESS:   54291200	FORWARD:          0	MERGED:    3105514	TO_CACHE:   51185686

STLB TOTAL     ACCESS:   19751449  HIT:   19183838  MISS:     567611  HIT %:    97.1262  MISS %:    2.87377   MPKI: 2.83805
STLB LOAD TRANSLATION ACCESS:   12742484  HIT:   12176157  MISS:     566327  HIT %:    95.5556  MISS %:     4.4444   MPKI: 2.83163
STLB TRANSLATION FROM L1D PREFETCHER ACCESS:    7008965  HIT:    7007681  MISS:       1284  HIT %:    99.9817  MISS %:  0.0183194   MPKI: 0.00642
STLB PREFETCH  REQUESTED:          0  ISSUED:          0  USEFUL:       2302  USELESS:        145
STLB USEFUL LOAD PREFETCHES:       2302 PREFETCH ISSUED TO LOWER LEVEL:          0  ACCURACY: inf
STLB TIMELY PREFETCHES:       2302 LATE PREFETCHES: 1248 DROPPED PREFETCHES: 617799
STLB PREFETCHES SAME FILL-ORIGIN LEVEL: 0 DIFFERENT FILL-ORIGIN LEVEL: 0
STLB AVERAGE MISS LATENCY: 46.6683 cycles
STLB RQ	ACCESS:   56080314	FORWARD:          0	MERGED:   35571698	TO_CACHE:   20508616

STLB Hit, L1D data hit: 0
STLB Hit, L2C data hit: 0
STLB Hit, LLC data hit: 0
STLB Hit, LLC data miss: 0
STLB STLB hints to L2: 0
L1D TOTAL     ACCESS:   85286857  HIT:   67676221  MISS:   17610636  HIT %:    79.3513  MISS %:    20.6487   MPKI: 88.0532
L1D LOAD      ACCESS:   44290530  HIT:   27734688  MISS:   16555842  HIT %:    62.6199  MISS %:    37.3801   MPKI: 82.7792
L1D RFO       ACCESS:    8098316  HIT:    7907223  MISS:     191093  HIT %:    97.6403  MISS %:    2.35966   MPKI: 0.955465
L1D PREFETCH  ACCESS:   32898011  HIT:   32034310  MISS:     863701  HIT %:    97.3746  MISS %:    2.62539   MPKI: 4.3185
L1D PREFETCH  REQUESTED:  102074448  ISSUED:  101552639  USEFUL:     846584  USELESS:      23274
L1D USEFUL LOAD PREFETCHES:     846584 PREFETCH ISSUED TO LOWER LEVEL:    7988003  ACCURACY: 10.5982
L1D TIMELY PREFETCHES:     846584 LATE PREFETCHES: 9056 DROPPED PREFETCHES: 1874555
L1D PREFETCHES SAME FILL-ORIGIN LEVEL: 878933 DIFFERENT FILL-ORIGIN LEVEL: 7109070
L1D AVERAGE MISS LATENCY: 109.973 cycles
L1D RQ	ACCESS:   72825585	FORWARD:          0	MERGED:   28130494	TO_CACHE:   44677907
L1D WQ	ACCESS:   11295913	FORWARD:      17184	MERGED:    1682620	TO_CACHE:    9613293
L1D PQ	ACCESS:   58216195	FORWARD:          0	MERGED:   14879751	TO_CACHE:   43336444

L1D UNIQUE REGIONS ACCESSED: 0
L1D REGIONS CONFLICTS: 0
L1D Cross Page Prefetch Requests: 9896984
L1D Same Page Prefetch Requests: 109693492
L1D ROI Sum of L1D PQ occupancy: 698112745
L1D PREFETCHES PUSHED FROM L2C: 0
L1I TOTAL     ACCESS:   27517796  HIT:   27517778  MISS:         18  HIT %:    99.9999  MISS %: 6.54122e-05   MPKI: 9e-05
L1I LOAD      ACCESS:   27517796  HIT:   27517778  MISS:         18  HIT %:    99.9999  MISS %: 6.54122e-05   MPKI: 9e-05
L1I PREFETCH  REQUESTED:          0  ISSUED:          0  USEFUL:          0  USELESS:          0
L1I USEFUL LOAD PREFETCHES:          0 PREFETCH ISSUED TO LOWER LEVEL:          0  ACCURACY: -nan
L1I TIMELY PREFETCHES:          0 LATE PREFETCHES: 0 DROPPED PREFETCHES: 0
L1I PREFETCHES SAME FILL-ORIGIN LEVEL: 0 DIFFERENT FILL-ORIGIN LEVEL: 0
L1I AVERAGE MISS LATENCY: 1480.78 cycles
L1I RQ	ACCESS:   47524297	FORWARD:          0	MERGED:   19593971	TO_CACHE:   27930326

BTB TOTAL     ACCESS:   12638439  HIT:   12638422  MISS:         17  HIT %:    99.9999  MISS %: 0.00013451   MPKI: 8.5e-05
BTB BRANCH_DIRECT_JUMP	ACCESS:          1  HIT:          0  MISS:          1
BTB BRANCH_INDIRECT	ACCESS:          0  HIT:          0  MISS:          0
BTB BRANCH_CONDITIONAL	ACCESS:   12638434  HIT:   12638422  MISS:         12
BTB BRANCH_DIRECT_CALL	ACCESS:          3  HIT:          0  MISS:          3
BTB BRANCH_INDIRECT_CALL	ACCESS:          0  HIT:          0  MISS:          0
BTB BRANCH_RETURN	ACCESS:          1  HIT:          0  MISS:          1
BTB BRANCH_OTHER ACCESS:          0  HIT:          0  MISS:          0

L2C TOTAL     ACCESS:   25331528  HIT:   15305315  MISS:   10026213  HIT %:      60.42  MISS %:      39.58   MPKI: 50.1311
L2C LOAD      ACCESS:   16549122  HIT:    7897485  MISS:    8651637  HIT %:    47.7215  MISS %:    52.2785   MPKI: 43.2582
L2C DATA LOAD MPKI: 43.2581
L2C INSTRUCTION LOAD MPKI: 9e-05
L2C RFO       ACCESS:     191093  HIT:          0  MISS:     191093  HIT %:          0  MISS %:        100   MPKI: 0.955465
L2C PREFETCH  ACCESS:    7149627  HIT:    6210939  MISS:     938688  HIT %:    86.8708  MISS %:    13.1292   MPKI: 4.69344
L2C DATA PREFETCH MPKI: 4.69344
L2C INSTRUCTION PREFETCH MPKI: 0
L2C WRITEBACK ACCESS:     255102  HIT:     111423  MISS:     143679  HIT %:    43.6778  MISS %:    56.3222   MPKI: 0.718395
L2C LOAD TRANSLATION ACCESS:     566328  HIT:     468161  MISS:      98167  HIT %:    82.6661  MISS %:    17.3339   MPKI: 0.490835
L2C TRANSLATION FROM L1D PREFETCHER ACCESS:     620256  HIT:     617307  MISS:       2949  HIT %:    99.5246  MISS %:   0.475449   MPKI: 0.014745
L2C PREFETCH  REQUESTED:          0  ISSUED:          0  USEFUL:     148077  USELESS:     854401
L2C USEFUL LOAD PREFETCHES:     148077 PREFETCH ISSUED TO LOWER LEVEL:    1027946  ACCURACY: 14.4051
L2C TIMELY PREFETCHES:     148077 LATE PREFETCHES: 29073 DROPPED PREFETCHES: 0
L2C PREFETCHES SAME FILL-ORIGIN LEVEL: 441710 DIFFERENT FILL-ORIGIN LEVEL: 0
L2C AVERAGE MISS LATENCY: 186.569 cycles
L2C RQ	ACCESS:   18008293	FORWARD:          0	MERGED:          0	TO_CACHE:   18008293
L2C WQ	ACCESS:     299074	FORWARD:          0	MERGED:          0	TO_CACHE:     299074
L2C PQ	ACCESS:    7986228	FORWARD:          0	MERGED:      17588	TO_CACHE:    7968640

L2C Instructions Evicting Data 18
L2C Translations Evicting Data 99741
L2C Data Evicting Data 9770328
L2C Instructions Evicting Instructions 0
L2C Translations Evicting Instructions 0
L2C Data Evicting Instructions 18
L2C Instructions Evicting Translations 0
L2C Translations Evicting Translations 1531
L2C Data Evicting Translations 99611
L2C Dense regions hint from L2: 0
PSCL5 TOTAL     ACCESS:    1186573  HIT:    1186573  MISS:          0  HIT %:        100  MISS %:          0   MPKI: 0
PSCL5 LOAD TRANSLATION ACCESS:     566322  HIT:     566322  MISS:          0  HIT %:        100  MISS %:          0   MPKI: 0
PSCL5 TRANSLATION FROM L1D PREFETCHER ACCESS:     620251  HIT:     620251  MISS:          0  HIT %:        100  MISS %:          0   MPKI: 0
PSCL5 PREFETCH  REQUESTED:          0  ISSUED:          0  USEFUL:          0  USELESS:          0
PSCL5 USEFUL LOAD PREFETCHES:          0 PREFETCH ISSUED TO LOWER LEVEL:          0  ACCURACY: -nan
PSCL5 TIMELY PREFETCHES:          0 LATE PREFETCHES: 0 DROPPED PREFETCHES: 0
PSCL5 PREFETCHES SAME FILL-ORIGIN LEVEL: 0 DIFFERENT FILL-ORIGIN LEVEL: 0

PSCL4 TOTAL     ACCESS:    1186566  HIT:    1186566  MISS:          0  HIT %:        100  MISS %:          0   MPKI: 0
PSCL4 LOAD TRANSLATION ACCESS:     566322  HIT:     566322  MISS:          0  HIT %:        100  MISS %:          0   MPKI: 0
PSCL4 TRANSLATION FROM L1D PREFETCHER ACCESS:     620244  HIT:     620244  MISS:          0  HIT %:        100  MISS %:          0   MPKI: 0
PSCL4 PREFETCH  REQUESTED:          0  ISSUED:          0  USEFUL:          0  USELESS:          0
PSCL4 USEFUL LOAD PREFETCHES:          0 PREFETCH ISSUED TO LOWER LEVEL:          0  ACCURACY: -nan
PSCL4 TIMELY PREFETCHES:          0 LATE PREFETCHES: 0 DROPPED PREFETCHES: 0
PSCL4 PREFETCHES SAME FILL-ORIGIN LEVEL: 0 DIFFERENT FILL-ORIGIN LEVEL: 0

PSCL3 TOTAL     ACCESS:    1186566  HIT:    1186566  MISS:          0  HIT %:        100  MISS %:          0   MPKI: 0
PSCL3 LOAD TRANSLATION ACCESS:     566322  HIT:     566322  MISS:          0  HIT %:        100  MISS %:          0   MPKI: 0
PSCL3 TRANSLATION FROM L1D PREFETCHER ACCESS:     620244  HIT:     620244  MISS:          0  HIT %:        100  MISS %:          0   MPKI: 0
PSCL3 PREFETCH  REQUESTED:          0  ISSUED:          0  USEFUL:          0  USELESS:          0
PSCL3 USEFUL LOAD PREFETCHES:          0 PREFETCH ISSUED TO LOWER LEVEL:          0  ACCURACY: -nan
PSCL3 TIMELY PREFETCHES:          0 LATE PREFETCHES: 0 DROPPED PREFETCHES: 0
PSCL3 PREFETCHES SAME FILL-ORIGIN LEVEL: 0 DIFFERENT FILL-ORIGIN LEVEL: 0

PSCL2 TOTAL     ACCESS:    1185544  HIT:    1185510  MISS:         34  HIT %:    99.9971  MISS %: 0.00286788   MPKI: 0.00017
PSCL2 LOAD TRANSLATION ACCESS:     566324  HIT:     566290  MISS:         34  HIT %:     99.994  MISS %: 0.00600363   MPKI: 0.00017
PSCL2 TRANSLATION FROM L1D PREFETCHER ACCESS:     619220  HIT:     619220  MISS:          0  HIT %:        100  MISS %:          0   MPKI: 0
PSCL2 PREFETCH  REQUESTED:          0  ISSUED:          0  USEFUL:          0  USELESS:          0
PSCL2 USEFUL LOAD PREFETCHES:          0 PREFETCH ISSUED TO LOWER LEVEL:          0  ACCURACY: -nan
PSCL2 TIMELY PREFETCHES:          0 LATE PREFETCHES: 0 DROPPED PREFETCHES: 0
PSCL2 PREFETCHES SAME FILL-ORIGIN LEVEL: 0 DIFFERENT FILL-ORIGIN LEVEL: 0

LLC TOTAL     ACCESS:   10144053  HIT:    6569235  MISS:    3574818  HIT %:    64.7595  MISS %:    35.2405   MPKI: 17.8741
LLC LOAD      ACCESS:    8647018  HIT:    6175976  MISS:    2471042  HIT %:    71.4232  MISS %:    28.5768   MPKI: 12.3552
LLC RFO       ACCESS:     191093  HIT:          0  MISS:     191093  HIT %:          0  MISS %:        100   MPKI: 0.955465
LLC PREFETCH  ACCESS:     943307  HIT:      57190  MISS:     886117  HIT %:    6.06271  MISS %:    93.9373   MPKI: 4.43058
LLC WRITEBACK ACCESS:     261519  HIT:     242125  MISS:      19394  HIT %:    92.5841  MISS %:     7.4159   MPKI: 0.09697
LLC LOAD TRANSLATION ACCESS:      98167  HIT:      92877  MISS:       5290  HIT %:    94.6112  MISS %:    5.38878   MPKI: 0.02645
LLC TRANSLATION FROM L1D PREFETCHER ACCESS:       2949  HIT:       1067  MISS:       1882  HIT %:    36.1818  MISS %:    63.8182   MPKI: 0.00941
LLC PREFETCH  REQUESTED:          0  ISSUED:          0  USEFUL:     294193  USELESS:    3384172
LLC USEFUL LOAD PREFETCHES:     294193 PREFETCH ISSUED TO LOWER LEVEL:   36640880  ACCURACY: 0.802909
LLC TIMELY PREFETCHES:     294193 LATE PREFETCHES: 0 DROPPED PREFETCHES: 0
LLC PREFETCHES SAME FILL-ORIGIN LEVEL: 0 DIFFERENT FILL-ORIGIN LEVEL: 0
LLC AVERAGE MISS LATENCY: 1728.48 cycles
LLC RQ	ACCESS:   35733112	FORWARD:          0	MERGED:          0	TO_CACHE:   35733112
LLC WQ	ACCESS:    1141597	FORWARD:          0	MERGED:          0	TO_CACHE:    1141597
LLC PQ	ACCESS:    3977442	FORWARD:          0	MERGED:          0	TO_CACHE:    3977442

LLC Dense regions hint to LLC: 0

RAW hits: 7473540
Loads Generated: 79767029
Loads sent to L1D: 72293481
Stores Generated: 11118550
Stores sent to L1D: 11118548
Major fault: 0 Minor fault: 29197
Allocated PAGES: 116788

CPU 3 cumulative IPC: 0.451307 instructions: 200000002 cycles: 443156960
ITLB TOTAL     ACCESS:   25716155  HIT:   25716153  MISS:          2  HIT %:        100  MISS %: 7.77721e-06   MPKI: 1e-05
ITLB LOAD TRANSLATION ACCESS:   25716155  HIT:   25716153  MISS:          2  HIT %:        100  MISS %: 7.77721e-06   MPKI: 1e-05
ITLB PREFETCH  REQUESTED:          0  ISSUED:          0  USEFUL:          0  USELESS:          0
ITLB USEFUL LOAD PREFETCHES:          0 PREFETCH ISSUED TO LOWER LEVEL:          0  ACCURACY: -nan
ITLB TIMELY PREFETCHES:          0 LATE PREFETCHES: 0 DROPPED PREFETCHES: 0
ITLB PREFETCHES SAME FILL-ORIGIN LEVEL: 0 DIFFERENT FILL-ORIGIN LEVEL: 0
ITLB AVERAGE MISS LATENCY: 1534.5 cycles
ITLB RQ	ACCESS:   27606870	FORWARD:          0	MERGED:    1818058	TO_CACHE:   25788812

DTLB TOTAL     ACCESS:   49874161  HIT:   37132036  MISS:   12742125  HIT %:    74.4514  MISS %:    25.5486   MPKI: 63.7106
DTLB LOAD TRANSLATION ACCESS:   49874161  HIT:   37132036  MISS:   12742125  HIT %:    74.4514  MISS %:    25.5486   MPKI: 63.7106
DTLB PREFETCH  REQUESTED:          0  ISSUED:          0  USEFUL:          0  USELESS:          0
DTLB USEFUL LOAD PREFETCHES:          0 PREFETCH ISSUED TO LOWER LEVEL:          0  ACCURACY: -nan
DTLB TIMELY PREFETCHES:          0 LATE PREFETCHES: 0 DROPPED PREFETCHES: 0
DTLB PREFETCHES SAME FILL-ORIGIN LEVEL: 0 DIFFERENT FILL-ORIGIN LEVEL: 0
DTLB AVERAGE MISS LATENCY: 11.5237 cycles
DTLB RQ	ACCESS:   53989595	FORWARD:          0	MERGED:    3073633	TO_CACHE:   50915962

STLB TOTAL     ACCESS:   19772724  HIT:   19205037  MISS:     567687  HIT %:    97.1289  MISS %:    2.87106   MPKI: 2.83843
STLB LOAD TRANSLATION ACCESS:   12742127  HIT:   12175796  MISS:     566331  HIT %:    95.5554  MISS %:    4.44456   MPKI: 2.83165
STLB TRANSLATION FROM L1D PREFETCHER ACCESS:    7030597  HIT:    7029241  MISS:       1356  HIT %:    99.9807  MISS %:  0.0192871   MPKI: 0.00678
STLB PREFETCH  REQUESTED:          0  ISSUED:          0  USEFUL:       1462  USELESS:        185
STLB USEFUL LOAD PREFETCHES:       1462 PREFETCH ISSUED TO LOWER LEVEL:          0  ACCURACY: inf
STLB TIMELY PREFETCHES:       1462 LATE PREFETCHES: 1174 DROPPED PREFETCHES: 617102
STLB PREFETCHES SAME FILL-ORIGIN LEVEL: 0 DIFFERENT FILL-ORIGIN LEVEL: 0
STLB AVERAGE MISS LATENCY: 45.5347 cycles
STLB RQ	ACCESS:   55875668	FORWARD:          0	MERGED:   35419232	TO_CACHE:   20456436

STLB Hit, L1D data hit: 0
STLB Hit, L2C data hit: 0
STLB Hit, LLC data hit: 0
STLB Hit, LLC data miss: 0
STLB STLB hints to L2: 0
L1D TOTAL     ACCESS:   85229903  HIT:   67616955  MISS:   17612948  HIT %:    79.3348  MISS %:    20.6652   MPKI: 88.0647
L1D LOAD      ACCESS:   44282742  HIT:   27725674  MISS:   16557068  HIT %:    62.6106  MISS %:    37.3894   MPKI: 82.7853
L1D RFO       ACCESS:    8084474  HIT:    7893374  MISS:     191100  HIT %:    97.6362  MISS %:    2.36379   MPKI: 0.9555
L1D PREFETCH  ACCESS:   32862687  HIT:   31997907  MISS:     864780  HIT %:    97.3685  MISS %:     2.6315   MPKI: 4.3239
L1D PREFETCH  REQUESTED:  101579081  ISSUED:  101031028  USEFUL:     841627  USELESS:      24834
L1D USEFUL LOAD PREFETCHES:     841627 PREFETCH ISSUED TO LOWER LEVEL:    7871559  ACCURACY: 10.692
L1D TIMELY PREFETCHES:     841627 LATE PREFETCHES: 7416 DROPPED PREFETCHES: 1876420
L1D PREFETCHES SAME FILL-ORIGIN LEVEL: 873877 DIFFERENT FILL-ORIGIN LEVEL: 6997682
L1D AVERAGE MISS LATENCY: 109.658 cycles
L1D RQ	ACCESS:   72450440	FORWARD:          0	MERGED:   27920084	TO_CACHE:   44513516
L1D WQ	ACCESS:   11172504	FORWARD:      16840	MERGED:    1696425	TO_CACHE:    9476079
L1D PQ	ACCESS:   57897909	FORWARD:          0	MERGED:   14764790	TO_CACHE:   43133119

L1D UNIQUE REGIONS ACCESSED: 0
L1D REGIONS CONFLICTS: 0
L1D Cross Page Prefetch Requests: 9899411
L1D Same Page Prefetch Requests: 109368669
L1D ROI Sum of L1D PQ occupancy: 694398015
L1D PREFETCHES PUSHED FROM L2C: 0
L1I TOTAL     ACCESS:   27481693  HIT:   27481675  MISS:         18  HIT %:    99.9999  MISS %: 6.54981e-05   MPKI: 9e-05
L1I LOAD      ACCESS:   27481693  HIT:   27481675  MISS:         18  HIT %:    99.9999  MISS %: 6.54981e-05   MPKI: 9e-05
L1I PREFETCH  REQUESTED:          0  ISSUED:          0  USEFUL:          0  USELESS:          0
L1I USEFUL LOAD PREFETCHES:          0 PREFETCH ISSUED TO LOWER LEVEL:          0  ACCURACY: -nan
L1I TIMELY PREFETCHES:          0 LATE PREFETCHES: 0 DROPPED PREFETCHES: 0
L1I PREFETCHES SAME FILL-ORIGIN LEVEL: 0 DIFFERENT FILL-ORIGIN LEVEL: 0
L1I AVERAGE MISS LATENCY: 1833.56 cycles
L1I RQ	ACCESS:   47228790	FORWARD:          0	MERGED:   19621920	TO_CACHE:   27606870

BTB TOTAL     ACCESS:   12638428  HIT:   12638410  MISS:         18  HIT %:    99.9999  MISS %: 0.000142423   MPKI: 9e-05
BTB BRANCH_DIRECT_JUMP	ACCESS:          1  HIT:          0  MISS:          1
BTB BRANCH_INDIRECT	ACCESS:          0  HIT:          0  MISS:          0
BTB BRANCH_CONDITIONAL	ACCESS:   12638423  HIT:   12638410  MISS:         13
BTB BRANCH_DIRECT_CALL	ACCESS:          3  HIT:          0  MISS:          3
BTB BRANCH_INDIRECT_CALL	ACCESS:          0  HIT:          0  MISS:          0
BTB BRANCH_RETURN	ACCESS:          1  HIT:          0  MISS:          1
BTB BRANCH_OTHER ACCESS:          0  HIT:          0  MISS:          0

L2C TOTAL     ACCESS:   25409461  HIT:   15371899  MISS:   10037562  HIT %:    60.4968  MISS %:    39.5032   MPKI: 50.1878
L2C LOAD      ACCESS:   16550307  HIT:    7883075  MISS:    8667232  HIT %:     47.631  MISS %:     52.369   MPKI: 43.3362
L2C DATA LOAD MPKI: 43.3361
L2C INSTRUCTION LOAD MPKI: 9e-05
L2C RFO       ACCESS:     191100  HIT:          0  MISS:     191100  HIT %:          0  MISS %:        100   MPKI: 0.9555
L2C PREFETCH  ACCESS:    7226996  HIT:    6287568  MISS:     939428  HIT %:    87.0011  MISS %:    12.9989   MPKI: 4.69714
L2C DATA PREFETCH MPKI: 4.69714
L2C INSTRUCTION PREFETCH MPKI: 0
L2C WRITEBACK ACCESS:     255104  HIT:     113717  MISS:     141387  HIT %:    44.5767  MISS %:    55.4233   MPKI: 0.706935
L2C LOAD TRANSLATION ACCESS:     566336  HIT:     470842  MISS:      95494  HIT %:    83.1383  MISS %:    16.8617   MPKI: 0.47747
L2C TRANSLATION FROM L1D PREFETCHER ACCESS:     619618  HIT:     616697  MISS:       2921  HIT %:    99.5286  MISS %:   0.471419   MPKI: 0.014605
L2C PREFETCH  REQUESTED:          0  ISSUED:          0  USEFUL:     112023  USELESS:     848906
L2C USEFUL LOAD PREFETCHES:     112023 PREFETCH ISSUED TO LOWER LEVEL:     969872  ACCURACY: 11.5503
L2C TIMELY PREFETCHES:     112023 LATE PREFETCHES: 12196 DROPPED PREFETCHES: 0
L2C PREFETCHES SAME FILL-ORIGIN LEVEL: 385993 DIFFERENT FILL-ORIGIN LEVEL: 0
L2C AVERAGE MISS LATENCY: 184.071 cycles
L2C RQ	ACCESS:   17952326	FORWARD:          0	MERGED:          0	TO_CACHE:   17952326
L2C WQ	ACCESS:     268216	FORWARD:          0	MERGED:          0	TO_CACHE:     268216
L2C PQ	ACCESS:    7870871	FORWARD:          0	MERGED:       7747	TO_CACHE:    7863124

L2C Instructions Evicting Data 18
L2C Translations Evicting Data 93634
L2C Data Evicting Data 9731089
L2C Instructions Evicting Instructions 0
L2C Translations Evicting Instructions 0
L2C Data Evicting Instructions 17
L2C Instructions Evicting Translations 0
L2C Translations Evicting Translations 4826
L2C Data Evicting Translations 93488
L2C Dense regions hint from L2: 0
PSCL5 TOTAL     ACCESS:    1185944  HIT:    1185944  MISS:          0  HIT %:        100  MISS %:          0   MPKI: 0
PSCL5 LOAD TRANSLATION ACCESS:     566330  HIT:     566330  MISS:          0  HIT %:        100  MISS %:          0   MPKI: 0
PSCL5 TRANSLATION FROM L1D PREFETCHER ACCESS:     619614  HIT:     619614  MISS:          0  HIT %:        100  MISS %:          0   MPKI: 0
PSCL5 PREFETCH  REQUESTED:          0  ISSUED:          0  USEFUL:          0  USELESS:          0
PSCL5 USEFUL LOAD PREFETCHES:          0 PREFETCH ISSUED TO LOWER LEVEL:          0  ACCURACY: -nan
PSCL5 TIMELY PREFETCHES:          0 LATE PREFETCHES: 0 DROPPED PREFETCHES: 0
PSCL5 PREFETCHES SAME FILL-ORIGIN LEVEL: 0 DIFFERENT FILL-ORIGIN LEVEL: 0

PSCL4 TOTAL     ACCESS:    1185937  HIT:    1185937  MISS:          0  HIT %:        100  MISS %:          0   MPKI: 0
PSCL4 LOAD TRANSLATION ACCESS:     566330  HIT:     566330  MISS:          0  HIT %:        100  MISS %:          0   MPKI: 0
PSCL4 TRANSLATION FROM L1D PREFETCHER ACCESS:     619607  HIT:     619607  MISS:          0  HIT %:        100  MISS %:          0   MPKI: 0
PSCL4 PREFETCH  REQUESTED:          0  ISSUED:          0  USEFUL:          0  USELESS:          0
PSCL4 USEFUL LOAD PREFETCHES:          0 PREFETCH ISSUED TO LOWER LEVEL:          0  ACCURACY: -nan
PSCL4 TIMELY PREFETCHES:          0 LATE PREFETCHES: 0 DROPPED PREFETCHES: 0
PSCL4 PREFETCHES SAME FILL-ORIGIN LEVEL: 0 DIFFERENT FILL-ORIGIN LEVEL: 0

PSCL3 TOTAL     ACCESS:    1185937  HIT:    1185937  MISS:          0  HIT %:        100  MISS %:          0   MPKI: 0
PSCL3 LOAD TRANSLATION ACCESS:     566330  HIT:     566330  MISS:          0  HIT %:        100  MISS %:          0   MPKI: 0
PSCL3 TRANSLATION FROM L1D PREFETCHER ACCESS:     619607  HIT:     619607  MISS:          0  HIT %:        100  MISS %:          0   MPKI: 0
PSCL3 PREFETCH  REQUESTED:          0  ISSUED:          0  USEFUL:          0  USELESS:          0
PSCL3 USEFUL LOAD PREFETCHES:          0 PREFETCH ISSUED TO LOWER LEVEL:          0  ACCURACY: -nan
PSCL3 TIMELY PREFETCHES:          0 LATE PREFETCHES: 0 DROPPED PREFETCHES: 0
PSCL3 PREFETCHES SAME FILL-ORIGIN LEVEL: 0 DIFFERENT FILL-ORIGIN LEVEL: 0

PSCL2 TOTAL     ACCESS:    1184871  HIT:    1184837  MISS:         34  HIT %:    99.9971  MISS %: 0.00286951   MPKI: 0.00017
PSCL2 LOAD TRANSLATION ACCESS:     566332  HIT:     566298  MISS:         34  HIT %:     99.994  MISS %: 0.00600355   MPKI: 0.00017
PSCL2 TRANSLATION FROM L1D PREFETCHER ACCESS:     618539  HIT:     618539  MISS:          0  HIT %:        100  MISS %:          0   MPKI: 0
PSCL2 PREFETCH  REQUESTED:          0  ISSUED:          0  USEFUL:          0  USELESS:          0
PSCL2 USEFUL LOAD PREFETCHES:          0 PREFETCH ISSUED TO LOWER LEVEL:          0  ACCURACY: -nan
PSCL2 TIMELY PREFETCHES:          0 LATE PREFETCHES: 0 DROPPED PREFETCHES: 0
PSCL2 PREFETCHES SAME FILL-ORIGIN LEVEL: 0 DIFFERENT FILL-ORIGIN LEVEL: 0

LLC TOTAL     ACCESS:   10157797  HIT:    6570486  MISS:    3587311  HIT %:    64.6842  MISS %:    35.3158   MPKI: 17.9366
LLC LOAD      ACCESS:    8662494  HIT:    6179114  MISS:    2483380  HIT %:    71.3318  MISS %:    28.6682   MPKI: 12.4169
LLC RFO       ACCESS:     191100  HIT:          0  MISS:     191100  HIT %:          0  MISS %:        100   MPKI: 0.9555
LLC PREFETCH  ACCESS:     944166  HIT:      58155  MISS:     886011  HIT %:     6.1594  MISS %:    93.8406   MPKI: 4.43005
LLC WRITEBACK ACCESS:     261622  HIT:     241413  MISS:      20209  HIT %:    92.2755  MISS %:     7.7245   MPKI: 0.101045
LLC LOAD TRANSLATION ACCESS:      95494  HIT:      90743  MISS:       4751  HIT %:    95.0248  MISS %:    4.97518   MPKI: 0.023755
LLC TRANSLATION FROM L1D PREFETCHER ACCESS:       2921  HIT:       1061  MISS:       1860  HIT %:    36.3232  MISS %:    63.6768   MPKI: 0.0093
LLC PREFETCH  REQUESTED:          0  ISSUED:          0  USEFUL:     294193  USELESS:    3384172
LLC USEFUL LOAD PREFETCHES:     294193 PREFETCH ISSUED TO LOWER LEVEL:   36640880  ACCURACY: 0.802909
LLC TIMELY PREFETCHES:     294193 LATE PREFETCHES: 0 DROPPED PREFETCHES: 0
LLC PREFETCHES SAME FILL-ORIGIN LEVEL: 0 DIFFERENT FILL-ORIGIN LEVEL: 0
LLC AVERAGE MISS LATENCY: 1722.46 cycles
LLC RQ	ACCESS:   35733112	FORWARD:          0	MERGED:          0	TO_CACHE:   35733112
LLC WQ	ACCESS:    1141597	FORWARD:          0	MERGED:          0	TO_CACHE:    1141597
LLC PQ	ACCESS:    3977442	FORWARD:          0	MERGED:          0	TO_CACHE:    3977442

LLC Dense regions hint to LLC: 0

RAW hits: 7478355
Loads Generated: 79766945
Loads sent to L1D: 72288588
Stores Generated: 11118558
Stores sent to L1D: 11118560
Major fault: 0 Minor fault: 29197
Allocated PAGES: 116788

DRAM Statistics
 CHANNEL 0
 RQ ROW_BUFFER_HIT:    1582519  ROW_BUFFER_MISS:   12885232
 DBUS_CONGESTED:       1612
 WQ ROW_BUFFER_HIT:     166978  ROW_BUFFER_MISS:    1032835  FULL:      59295

 AVG_CONGESTED_CYCLE: 5
 All warmup complete: 5
Channel 0 Bank busy for read cycles: 0
Channel 0 Bank busy for write cycles: 0
Channel 0
Rank 0
0banks busy for read cycles: 222451
0banks busy for write cycles: 189
1banks busy for read cycles: 15003030
1banks busy for write cycles: 235463
2banks busy for read cycles: 34966792
2banks busy for write cycles: 220736
3banks busy for read cycles: 53656948
3banks busy for write cycles: 212327
4banks busy for read cycles: 68015672
4banks busy for write cycles: 204598
5banks busy for read cycles: 75376973
5banks busy for write cycles: 218089
6banks busy for read cycles: 71469903
6banks busy for write cycles: 277608
7banks busy for read cycles: 54293593
7banks busy for write cycles: 2055457
8banks busy for read cycles: 41664742
8banks busy for write cycles: 27292241

CPU 0 Branch Prediction Accuracy: 97.8877% MPKI: 2.50765 Average ROB Occupancy at Mispredict: 214.217
Branch types
NOT_BRANCH: 177864674 88.1287%
BRANCH_DIRECT_JUMP: 1 4.95482e-07%
BRANCH_INDIRECT: 0 0%
BRANCH_CONDITIONAL: 23959481 11.8715%
BRANCH_DIRECT_CALL: 3 1.48645e-06%
BRANCH_INDIRECT_CALL: 0 0%
BRANCH_RETURN: 1 4.95482e-07%
BRANCH_OTHER: 0 0%


CPU 1 Branch Prediction Accuracy: 97.8696% MPKI: 2.53051 Average ROB Occupancy at Mispredict: 214.39
Branch types
NOT_BRANCH: 176243505 88.1218%
BRANCH_DIRECT_JUMP: 1 5e-07%
BRANCH_INDIRECT: 0 0%
BRANCH_CONDITIONAL: 23756763 11.8784%
BRANCH_DIRECT_CALL: 3 1.5e-06%
BRANCH_INDIRECT_CALL: 0 0%
BRANCH_RETURN: 1 5e-07%
BRANCH_OTHER: 0 0%


CPU 2 Branch Prediction Accuracy: 97.8854% MPKI: 2.51048 Average ROB Occupancy at Mispredict: 214.271
Branch types
NOT_BRANCH: 177662349 88.1278%
BRANCH_DIRECT_JUMP: 1 4.96041e-07%
BRANCH_INDIRECT: 0 0%
BRANCH_CONDITIONAL: 23934284 11.8724%
BRANCH_DIRECT_CALL: 3 1.48812e-06%
BRANCH_INDIRECT_CALL: 0 0%
BRANCH_RETURN: 1 4.96041e-07%
BRANCH_OTHER: 0 0%


CPU 3 Branch Prediction Accuracy: 97.8745% MPKI: 2.5244 Average ROB Occupancy at Mispredict: 214.315
Branch types
NOT_BRANCH: 176674911 88.1235%
BRANCH_DIRECT_JUMP: 1 4.98789e-07%
BRANCH_INDIRECT: 0 0%
BRANCH_CONDITIONAL: 23810927 11.8766%
BRANCH_DIRECT_CALL: 3 1.49637e-06%
BRANCH_INDIRECT_CALL: 0 0%
BRANCH_RETURN: 1 4.98789e-07%
BRANCH_OTHER: 0 0%

DRAM PAGES: 1048576
Allocated PAGES: 116788
