
*** ChampSim Multicore Out-of-Order Simulator ***

Warmup Instructions: 50000000
Simulation Instructions: 200000000
Number of CPUs: 4
LLC sets: 8192
LLC ways: 16
Off-chip DRAM Size: 4096 MB Channels: 1 Width: 64-bit Data Rate: 6400 MT/s
CPU 0 runs ./traces/ligra/ligra_Components-Shortcut.com-lj.ungraph.gcc_6.3.0_O3.drop_750M.length_250M.champsimtrace.xz
.xz
CPU 1 runs ./traces/ligra/ligra_Components-Shortcut.com-lj.ungraph.gcc_6.3.0_O3.drop_750M.length_250M.champsimtrace.xz
.xz
CPU 2 runs ./traces/ligra/ligra_Components-Shortcut.com-lj.ungraph.gcc_6.3.0_O3.drop_750M.length_250M.champsimtrace.xz
.xz
CPU 3 runs ./traces/ligra/ligra_Components-Shortcut.com-lj.ungraph.gcc_6.3.0_O3.drop_750M.length_250M.champsimtrace.xz
.xz
BTB has LRU replacement policy
ITLB has LRU replacement policy
DTLB has LRU replacement policy
STLB has LRU replacement policy
L1I has LRU replacement policy
History Sets: 8
History Ways: 16
BERTI Size: 16
BERTI Stride Size: 8
L1D has LRU replacement policy
Initialize SRRIP state for L2C
Initialize DRRIP state for LLC
BTB has LRU replacement policy
ITLB has LRU replacement policy
DTLB has LRU replacement policy
STLB has LRU replacement policy
L1I has LRU replacement policy
History Sets: 8
History Ways: 16
BERTI Size: 16
BERTI Stride Size: 8
L1D has LRU replacement policy
Initialize SRRIP state for L2C
Initialize DRRIP state for LLC
BTB has LRU replacement policy
ITLB has LRU replacement policy
DTLB has LRU replacement policy
STLB has LRU replacement policy
L1I has LRU replacement policy
History Sets: 8
History Ways: 16
BERTI Size: 16
BERTI Stride Size: 8
L1D has LRU replacement policy
Initialize SRRIP state for L2C
Initialize DRRIP state for LLC
BTB has LRU replacement policy
ITLB has LRU replacement policy
DTLB has LRU replacement policy
STLB has LRU replacement policy
L1I has LRU replacement policy
History Sets: 8
History Ways: 16
BERTI Size: 16
BERTI Stride Size: 8
L1D has LRU replacement policy
Initialize SRRIP state for L2C
Initialize DRRIP state for LLC
Heartbeat CPU 0 instructions: 10000002 cycles: 3333346 heartbeat IPC: 2.99999 cumulative IPC: 2.99999 (Simulation time: 0 hr 1 min 38 sec) 
Heartbeat CPU 1 instructions: 10000002 cycles: 3333347 heartbeat IPC: 2.99999 cumulative IPC: 2.99999 (Simulation time: 0 hr 1 min 38 sec) 
Heartbeat CPU 2 instructions: 10000002 cycles: 3333348 heartbeat IPC: 2.99999 cumulative IPC: 2.99999 (Simulation time: 0 hr 1 min 38 sec) 
Heartbeat CPU 3 instructions: 10000002 cycles: 3333349 heartbeat IPC: 2.99999 cumulative IPC: 2.99999 (Simulation time: 0 hr 1 min 38 sec) 
Heartbeat CPU 0 instructions: 20000000 cycles: 6666679 heartbeat IPC: 3 cumulative IPC: 2.99999 (Simulation time: 0 hr 3 min 23 sec) 
Heartbeat CPU 1 instructions: 20000000 cycles: 6666680 heartbeat IPC: 3 cumulative IPC: 2.99999 (Simulation time: 0 hr 3 min 23 sec) 
Heartbeat CPU 2 instructions: 20000000 cycles: 6666681 heartbeat IPC: 3 cumulative IPC: 2.99999 (Simulation time: 0 hr 3 min 23 sec) 
Heartbeat CPU 3 instructions: 20000000 cycles: 6666682 heartbeat IPC: 3 cumulative IPC: 2.99999 (Simulation time: 0 hr 3 min 23 sec) 
Heartbeat CPU 0 instructions: 30000001 cycles: 10000012 heartbeat IPC: 3 cumulative IPC: 3 (Simulation time: 0 hr 5 min 7 sec) 
Heartbeat CPU 1 instructions: 30000001 cycles: 10000013 heartbeat IPC: 3 cumulative IPC: 3 (Simulation time: 0 hr 5 min 7 sec) 
Heartbeat CPU 2 instructions: 30000001 cycles: 10000014 heartbeat IPC: 3 cumulative IPC: 3 (Simulation time: 0 hr 5 min 7 sec) 
Heartbeat CPU 3 instructions: 30000001 cycles: 10000015 heartbeat IPC: 3 cumulative IPC: 3 (Simulation time: 0 hr 5 min 7 sec) 
Heartbeat CPU 0 instructions: 40000000 cycles: 13333344 heartbeat IPC: 3 cumulative IPC: 3 (Simulation time: 0 hr 6 min 51 sec) 
Heartbeat CPU 1 instructions: 40000000 cycles: 13333345 heartbeat IPC: 3 cumulative IPC: 3 (Simulation time: 0 hr 6 min 51 sec) 
Heartbeat CPU 2 instructions: 40000000 cycles: 13333346 heartbeat IPC: 3 cumulative IPC: 3 (Simulation time: 0 hr 6 min 51 sec) 
Heartbeat CPU 3 instructions: 40000000 cycles: 13333347 heartbeat IPC: 3 cumulative IPC: 3 (Simulation time: 0 hr 6 min 51 sec) 
Heartbeat CPU 0 instructions: 50000000 cycles: 16666678 heartbeat IPC: 3 cumulative IPC: 3 (Simulation time: 0 hr 8 min 38 sec) 
Heartbeat CPU 1 instructions: 50000000 cycles: 16666679 heartbeat IPC: 3 cumulative IPC: 3 (Simulation time: 0 hr 8 min 38 sec) 
Heartbeat CPU 2 instructions: 50000000 cycles: 16666680 heartbeat IPC: 3 cumulative IPC: 3 (Simulation time: 0 hr 8 min 38 sec) 
Heartbeat CPU 3 instructions: 50000000 cycles: 16666681 heartbeat IPC: 3 cumulative IPC: 3 (Simulation time: 0 hr 8 min 38 sec) 

Warmup complete CPU 0 instructions: 50000011 cycles: 16666682 (Simulation time: 0 hr 8 min 38 sec) 
Warmup complete CPU 1 instructions: 50000008 cycles: 16666682 (Simulation time: 0 hr 8 min 38 sec) 
Warmup complete CPU 2 instructions: 50000005 cycles: 16666682 (Simulation time: 0 hr 8 min 38 sec) 
Warmup complete CPU 3 instructions: 50000001 cycles: 16666682 (Simulation time: 0 hr 8 min 38 sec) 

Heartbeat CPU 0 instructions: 60000000 cycles: 25204299 heartbeat IPC: 1.17129 cumulative IPC: 1.17129 (Simulation time: 0 hr 11 min 56 sec) 
Heartbeat CPU 1 instructions: 60000000 cycles: 25204401 heartbeat IPC: 1.17127 cumulative IPC: 1.17127 (Simulation time: 0 hr 11 min 56 sec) 
Heartbeat CPU 2 instructions: 60000000 cycles: 25204800 heartbeat IPC: 1.17122 cumulative IPC: 1.17122 (Simulation time: 0 hr 11 min 56 sec) 
Heartbeat CPU 3 instructions: 60000000 cycles: 25211365 heartbeat IPC: 1.17032 cumulative IPC: 1.17032 (Simulation time: 0 hr 11 min 56 sec) 
Heartbeat CPU 0 instructions: 70000000 cycles: 33740506 heartbeat IPC: 1.17148 cumulative IPC: 1.17138 (Simulation time: 0 hr 15 min 2 sec) 
Heartbeat CPU 1 instructions: 70000000 cycles: 33741680 heartbeat IPC: 1.17133 cumulative IPC: 1.1713 (Simulation time: 0 hr 15 min 2 sec) 
Heartbeat CPU 2 instructions: 70000000 cycles: 33745185 heartbeat IPC: 1.17091 cumulative IPC: 1.17106 (Simulation time: 0 hr 15 min 2 sec) 
Heartbeat CPU 3 instructions: 70000000 cycles: 33751075 heartbeat IPC: 1.171 cumulative IPC: 1.17066 (Simulation time: 0 hr 15 min 2 sec) 
Heartbeat CPU 0 instructions: 80000001 cycles: 42293868 heartbeat IPC: 1.16913 cumulative IPC: 1.17063 (Simulation time: 0 hr 18 min 6 sec) 
Heartbeat CPU 1 instructions: 80000001 cycles: 42295390 heartbeat IPC: 1.16908 cumulative IPC: 1.17056 (Simulation time: 0 hr 18 min 6 sec) 
Heartbeat CPU 2 instructions: 80000001 cycles: 42300101 heartbeat IPC: 1.16892 cumulative IPC: 1.17035 (Simulation time: 0 hr 18 min 6 sec) 
Heartbeat CPU 3 instructions: 80000001 cycles: 42307144 heartbeat IPC: 1.16876 cumulative IPC: 1.17003 (Simulation time: 0 hr 18 min 6 sec) 
Heartbeat CPU 0 instructions: 90000000 cycles: 50876152 heartbeat IPC: 1.16519 cumulative IPC: 1.16927 (Simulation time: 0 hr 21 min 12 sec) 
Heartbeat CPU 1 instructions: 90000000 cycles: 50878007 heartbeat IPC: 1.16515 cumulative IPC: 1.1692 (Simulation time: 0 hr 21 min 12 sec) 
Heartbeat CPU 2 instructions: 90000000 cycles: 50883436 heartbeat IPC: 1.16505 cumulative IPC: 1.16902 (Simulation time: 0 hr 21 min 12 sec) 
Heartbeat CPU 3 instructions: 90000000 cycles: 50892383 heartbeat IPC: 1.16479 cumulative IPC: 1.16871 (Simulation time: 0 hr 21 min 12 sec) 
Heartbeat CPU 0 instructions: 100000000 cycles: 59448453 heartbeat IPC: 1.16655 cumulative IPC: 1.16872 (Simulation time: 0 hr 24 min 19 sec) 
Heartbeat CPU 1 instructions: 100000000 cycles: 59451520 heartbeat IPC: 1.16638 cumulative IPC: 1.16864 (Simulation time: 0 hr 24 min 19 sec) 
Heartbeat CPU 2 instructions: 100000000 cycles: 59456792 heartbeat IPC: 1.1664 cumulative IPC: 1.16849 (Simulation time: 0 hr 24 min 19 sec) 
Heartbeat CPU 3 instructions: 100000000 cycles: 59467330 heartbeat IPC: 1.16619 cumulative IPC: 1.16821 (Simulation time: 0 hr 24 min 19 sec) 
Heartbeat CPU 0 instructions: 110000000 cycles: 68016237 heartbeat IPC: 1.16716 cumulative IPC: 1.16846 (Simulation time: 0 hr 27 min 27 sec) 
Heartbeat CPU 1 instructions: 110000000 cycles: 68020398 heartbeat IPC: 1.16701 cumulative IPC: 1.16837 (Simulation time: 0 hr 27 min 28 sec) 
Heartbeat CPU 2 instructions: 110000000 cycles: 68025357 heartbeat IPC: 1.16706 cumulative IPC: 1.16825 (Simulation time: 0 hr 27 min 28 sec) 
Heartbeat CPU 3 instructions: 110000000 cycles: 68036483 heartbeat IPC: 1.16698 cumulative IPC: 1.168 (Simulation time: 0 hr 27 min 28 sec) 
Heartbeat CPU 0 instructions: 120000001 cycles: 76615020 heartbeat IPC: 1.16296 cumulative IPC: 1.16767 (Simulation time: 0 hr 30 min 36 sec) 
Heartbeat CPU 1 instructions: 120000001 cycles: 76619245 heartbeat IPC: 1.16295 cumulative IPC: 1.16759 (Simulation time: 0 hr 30 min 36 sec) 
Heartbeat CPU 2 instructions: 120000001 cycles: 76627604 heartbeat IPC: 1.16249 cumulative IPC: 1.16743 (Simulation time: 0 hr 30 min 36 sec) 
Heartbeat CPU 3 instructions: 120000001 cycles: 76634443 heartbeat IPC: 1.16307 cumulative IPC: 1.16729 (Simulation time: 0 hr 30 min 37 sec) 
Heartbeat CPU 0 instructions: 130000002 cycles: 85217960 heartbeat IPC: 1.16239 cumulative IPC: 1.16701 (Simulation time: 0 hr 33 min 32 sec) 
Heartbeat CPU 1 instructions: 130000002 cycles: 85223913 heartbeat IPC: 1.16216 cumulative IPC: 1.16691 (Simulation time: 0 hr 33 min 32 sec) 
Heartbeat CPU 2 instructions: 130000002 cycles: 85231318 heartbeat IPC: 1.16229 cumulative IPC: 1.16678 (Simulation time: 0 hr 33 min 32 sec) 
Heartbeat CPU 3 instructions: 130000002 cycles: 85237177 heartbeat IPC: 1.16242 cumulative IPC: 1.16668 (Simulation time: 0 hr 33 min 32 sec) 
Heartbeat CPU 0 instructions: 140000000 cycles: 93802336 heartbeat IPC: 1.16491 cumulative IPC: 1.16678 (Simulation time: 0 hr 36 min 33 sec) 
Heartbeat CPU 1 instructions: 140000000 cycles: 93809038 heartbeat IPC: 1.16481 cumulative IPC: 1.16667 (Simulation time: 0 hr 36 min 34 sec) 
Heartbeat CPU 2 instructions: 140000000 cycles: 93815289 heartbeat IPC: 1.16496 cumulative IPC: 1.16658 (Simulation time: 0 hr 36 min 34 sec) 
Heartbeat CPU 3 instructions: 140000000 cycles: 93820753 heartbeat IPC: 1.16502 cumulative IPC: 1.1665 (Simulation time: 0 hr 36 min 34 sec) 
Heartbeat CPU 0 instructions: 150000000 cycles: 102384110 heartbeat IPC: 1.16526 cumulative IPC: 1.16662 (Simulation time: 0 hr 39 min 34 sec) 
Heartbeat CPU 1 instructions: 150000000 cycles: 102390027 heartbeat IPC: 1.16537 cumulative IPC: 1.16654 (Simulation time: 0 hr 39 min 35 sec) 
Heartbeat CPU 2 instructions: 150000000 cycles: 102395183 heartbeat IPC: 1.16552 cumulative IPC: 1.16647 (Simulation time: 0 hr 39 min 35 sec) 
Heartbeat CPU 3 instructions: 150000000 cycles: 102400848 heartbeat IPC: 1.16549 cumulative IPC: 1.1664 (Simulation time: 0 hr 39 min 35 sec) 
Heartbeat CPU 0 instructions: 160000002 cycles: 110979489 heartbeat IPC: 1.16342 cumulative IPC: 1.16633 (Simulation time: 0 hr 42 min 43 sec) 
Heartbeat CPU 1 instructions: 160000002 cycles: 110985349 heartbeat IPC: 1.16342 cumulative IPC: 1.16626 (Simulation time: 0 hr 42 min 43 sec) 
Heartbeat CPU 2 instructions: 160000002 cycles: 110990245 heartbeat IPC: 1.16346 cumulative IPC: 1.1662 (Simulation time: 0 hr 42 min 43 sec) 
Heartbeat CPU 3 instructions: 160000002 cycles: 110996156 heartbeat IPC: 1.16343 cumulative IPC: 1.16613 (Simulation time: 0 hr 42 min 44 sec) 
Heartbeat CPU 0 instructions: 170000003 cycles: 119592433 heartbeat IPC: 1.16104 cumulative IPC: 1.16589 (Simulation time: 0 hr 45 min 12 sec) 
Heartbeat CPU 1 instructions: 170000003 cycles: 119598308 heartbeat IPC: 1.16104 cumulative IPC: 1.16582 (Simulation time: 0 hr 45 min 13 sec) 
Heartbeat CPU 2 instructions: 170000003 cycles: 119605544 heartbeat IPC: 1.16073 cumulative IPC: 1.16574 (Simulation time: 0 hr 45 min 13 sec) 
Heartbeat CPU 3 instructions: 170000003 cycles: 119611071 heartbeat IPC: 1.16078 cumulative IPC: 1.16568 (Simulation time: 0 hr 45 min 13 sec) 
Heartbeat CPU 0 instructions: 180000000 cycles: 128212213 heartbeat IPC: 1.16012 cumulative IPC: 1.16544 (Simulation time: 0 hr 47 min 48 sec) 
Heartbeat CPU 1 instructions: 180000000 cycles: 128217882 heartbeat IPC: 1.16015 cumulative IPC: 1.16538 (Simulation time: 0 hr 47 min 48 sec) 
Heartbeat CPU 2 instructions: 180000000 cycles: 128222960 heartbeat IPC: 1.16044 cumulative IPC: 1.16533 (Simulation time: 0 hr 47 min 48 sec) 
Heartbeat CPU 3 instructions: 180000000 cycles: 128228556 heartbeat IPC: 1.16043 cumulative IPC: 1.16527 (Simulation time: 0 hr 47 min 48 sec) 
Heartbeat CPU 0 instructions: 190000001 cycles: 136828454 heartbeat IPC: 1.1606 cumulative IPC: 1.1651 (Simulation time: 0 hr 50 min 46 sec) 
Heartbeat CPU 1 instructions: 190000001 cycles: 136834318 heartbeat IPC: 1.16057 cumulative IPC: 1.16504 (Simulation time: 0 hr 50 min 46 sec) 
Heartbeat CPU 2 instructions: 190000001 cycles: 136839232 heartbeat IPC: 1.16059 cumulative IPC: 1.16499 (Simulation time: 0 hr 50 min 46 sec) 
Heartbeat CPU 3 instructions: 190000001 cycles: 136845682 heartbeat IPC: 1.16048 cumulative IPC: 1.16493 (Simulation time: 0 hr 50 min 46 sec) 
Heartbeat CPU 0 instructions: 200000000 cycles: 145402198 heartbeat IPC: 1.16635 cumulative IPC: 1.16518 (Simulation time: 0 hr 53 min 47 sec) 
Heartbeat CPU 1 instructions: 200000000 cycles: 145408507 heartbeat IPC: 1.16629 cumulative IPC: 1.16512 (Simulation time: 0 hr 53 min 47 sec) 
Heartbeat CPU 2 instructions: 200000000 cycles: 145413990 heartbeat IPC: 1.16621 cumulative IPC: 1.16507 (Simulation time: 0 hr 53 min 47 sec) 
Heartbeat CPU 3 instructions: 200000000 cycles: 145419097 heartbeat IPC: 1.1664 cumulative IPC: 1.16503 (Simulation time: 0 hr 53 min 47 sec) 
Heartbeat CPU 0 instructions: 210000001 cycles: 153974547 heartbeat IPC: 1.16654 cumulative IPC: 1.16526 (Simulation time: 0 hr 56 min 23 sec) 
Heartbeat CPU 1 instructions: 210000001 cycles: 153979969 heartbeat IPC: 1.16666 cumulative IPC: 1.16522 (Simulation time: 0 hr 56 min 23 sec) 
Heartbeat CPU 2 instructions: 210000001 cycles: 153985469 heartbeat IPC: 1.16666 cumulative IPC: 1.16517 (Simulation time: 0 hr 56 min 23 sec) 
Heartbeat CPU 3 instructions: 210000001 cycles: 153991583 heartbeat IPC: 1.16652 cumulative IPC: 1.16512 (Simulation time: 0 hr 56 min 23 sec) 
Heartbeat CPU 0 instructions: 220000000 cycles: 162581327 heartbeat IPC: 1.16187 cumulative IPC: 1.16506 (Simulation time: 0 hr 58 min 46 sec) 
Heartbeat CPU 1 instructions: 220000000 cycles: 162586583 heartbeat IPC: 1.1619 cumulative IPC: 1.16502 (Simulation time: 0 hr 58 min 46 sec) 
Heartbeat CPU 2 instructions: 220000000 cycles: 162591669 heartbeat IPC: 1.16195 cumulative IPC: 1.16498 (Simulation time: 0 hr 58 min 46 sec) 
Heartbeat CPU 3 instructions: 220000000 cycles: 162598550 heartbeat IPC: 1.16185 cumulative IPC: 1.16493 (Simulation time: 0 hr 58 min 46 sec) 
Heartbeat CPU 0 instructions: 230000002 cycles: 171193848 heartbeat IPC: 1.1611 cumulative IPC: 1.16484 (Simulation time: 1 hr 1 min 25 sec) 
Heartbeat CPU 1 instructions: 230000002 cycles: 171199487 heartbeat IPC: 1.16105 cumulative IPC: 1.1648 (Simulation time: 1 hr 1 min 25 sec) 
Heartbeat CPU 2 instructions: 230000002 cycles: 171205728 heartbeat IPC: 1.16089 cumulative IPC: 1.16475 (Simulation time: 1 hr 1 min 25 sec) 
Heartbeat CPU 3 instructions: 230000002 cycles: 171211826 heartbeat IPC: 1.161 cumulative IPC: 1.16471 (Simulation time: 1 hr 1 min 25 sec) 
Heartbeat CPU 0 instructions: 240000003 cycles: 179794044 heartbeat IPC: 1.16276 cumulative IPC: 1.16473 (Simulation time: 1 hr 4 min 1 sec) 
Heartbeat CPU 1 instructions: 240000003 cycles: 179802126 heartbeat IPC: 1.16243 cumulative IPC: 1.16468 (Simulation time: 1 hr 4 min 1 sec) 
Heartbeat CPU 2 instructions: 240000003 cycles: 179807055 heartbeat IPC: 1.16261 cumulative IPC: 1.16464 (Simulation time: 1 hr 4 min 1 sec) 
Heartbeat CPU 3 instructions: 240000003 cycles: 179812784 heartbeat IPC: 1.16266 cumulative IPC: 1.1646 (Simulation time: 1 hr 4 min 1 sec) 
*** Reached end of trace for Core: 0 Repeating trace: ./traces/ligra/ligra_Components-Shortcut.com-lj.ungraph.gcc_6.3.0_O3.drop_750M.length_250M.champsimtrace.xz
Heartbeat CPU 0 instructions: 250000000 cycles: 188399651 heartbeat IPC: 1.16203 cumulative IPC: 1.1646 (Simulation time: 1 hr 6 min 50 sec) 
Finished CPU 0 instructions: 200000000 cycles: 171733512 cumulative IPC: 1.1646 (Simulation time: 1 hr 6 min 50 sec) 
*** Reached end of trace for Core: 1 Repeating trace: ./traces/ligra/ligra_Components-Shortcut.com-lj.ungraph.gcc_6.3.0_O3.drop_750M.length_250M.champsimtrace.xz
Heartbeat CPU 1 instructions: 250000000 cycles: 188406546 heartbeat IPC: 1.16219 cumulative IPC: 1.16455 (Simulation time: 1 hr 6 min 50 sec) 
Finished CPU 1 instructions: 200000003 cycles: 171740303 cumulative IPC: 1.16455 (Simulation time: 1 hr 6 min 50 sec) 
*** Reached end of trace for Core: 2 Repeating trace: ./traces/ligra/ligra_Components-Shortcut.com-lj.ungraph.gcc_6.3.0_O3.drop_750M.length_250M.champsimtrace.xz
Heartbeat CPU 2 instructions: 250000000 cycles: 188412508 heartbeat IPC: 1.16205 cumulative IPC: 1.16451 (Simulation time: 1 hr 6 min 50 sec) 
Finished CPU 2 instructions: 200000002 cycles: 171745828 cumulative IPC: 1.16451 (Simulation time: 1 hr 6 min 50 sec) 
*** Reached end of trace for Core: 3 Repeating trace: ./traces/ligra/ligra_Components-Shortcut.com-lj.ungraph.gcc_6.3.0_O3.drop_750M.length_250M.champsimtrace.xz
Heartbeat CPU 3 instructions: 250000000 cycles: 188418031 heartbeat IPC: 1.16208 cumulative IPC: 1.16447 (Simulation time: 1 hr 6 min 50 sec) 
Finished CPU 3 instructions: 200000003 cycles: 171751350 cumulative IPC: 1.16447 (Simulation time: 1 hr 6 min 50 sec) 

ChampSim completed all CPUs

Total Simulation Statistics (not including warmup)

CPU 0 cumulative IPC: 1.1646 instructions: 200021509 cycles: 171751350
ITLB TOTAL     ACCESS:   33214992  HIT:   33214992  MISS:          0  HIT %:        100  MISS %:          0   MPKI: 0
ITLB LOAD      ACCESS:          0  HIT:          0  MISS:          0  HIT %:       -nan  MISS %:       -nan   MPKI: 0
ITLB RFO       ACCESS:          0  HIT:          0  MISS:          0  HIT %:       -nan  MISS %:       -nan   MPKI: 0
ITLB PREFETCH  ACCESS:          0  HIT:          0  MISS:          0  HIT %:       -nan  MISS %:       -nan   MPKI: 0
ITLB WRITEBACK ACCESS:          0  HIT:          0  MISS:          0  HIT %:       -nan  MISS %:       -nan   MPKI: 0
DTLB TOTAL     ACCESS:   18110520  HIT:   18103207  MISS:       7313  HIT %:    99.9596  MISS %:  0.0403798   MPKI: 0.0365611
DTLB LOAD      ACCESS:          0  HIT:          0  MISS:          0  HIT %:       -nan  MISS %:       -nan   MPKI: 0
DTLB RFO       ACCESS:          0  HIT:          0  MISS:          0  HIT %:       -nan  MISS %:       -nan   MPKI: 0
DTLB PREFETCH  ACCESS:          0  HIT:          0  MISS:          0  HIT %:       -nan  MISS %:       -nan   MPKI: 0
DTLB WRITEBACK ACCESS:          0  HIT:          0  MISS:          0  HIT %:       -nan  MISS %:       -nan   MPKI: 0
STLB TOTAL     ACCESS:   11281535  HIT:   11274221  MISS:       7314  HIT %:    99.9352  MISS %:  0.0648316   MPKI: 0.0365661
STLB LOAD      ACCESS:          0  HIT:          0  MISS:          0  HIT %:       -nan  MISS %:       -nan   MPKI: 0
STLB RFO       ACCESS:          0  HIT:          0  MISS:          0  HIT %:       -nan  MISS %:       -nan   MPKI: 0
STLB PREFETCH  ACCESS:          0  HIT:          0  MISS:          0  HIT %:       -nan  MISS %:       -nan   MPKI: 0
STLB WRITEBACK ACCESS:          0  HIT:          0  MISS:          0  HIT %:       -nan  MISS %:       -nan   MPKI: 0
L1D TOTAL     ACCESS:   76816503  HIT:   76348492  MISS:     468011  HIT %:    99.3907  MISS %:   0.609258   MPKI: 2.3398
L1D LOAD      ACCESS:   14530603  HIT:   14523211  MISS:       7392  HIT %:    99.9491  MISS %:  0.0508719   MPKI: 0.036956
L1D RFO       ACCESS:    4062104  HIT:    4062104  MISS:          0  HIT %:        100  MISS %:          0   MPKI: 0
L1D PREFETCH  ACCESS:   58223796  HIT:   57763177  MISS:     460619  HIT %:    99.2089  MISS %:   0.791118   MPKI: 2.30285
L1D WRITEBACK ACCESS:          0  HIT:          0  MISS:          0  HIT %:       -nan  MISS %:       -nan   MPKI: 0
L1I TOTAL     ACCESS:   33214991  HIT:   33214991  MISS:          0  HIT %:        100  MISS %:          0   MPKI: 0
L1I LOAD      ACCESS:   33214991  HIT:   33214991  MISS:          0  HIT %:        100  MISS %:          0   MPKI: 0
L1I RFO       ACCESS:          0  HIT:          0  MISS:          0  HIT %:       -nan  MISS %:       -nan   MPKI: 0
L1I PREFETCH  ACCESS:          0  HIT:          0  MISS:          0  HIT %:       -nan  MISS %:       -nan   MPKI: 0
L1I WRITEBACK ACCESS:          0  HIT:          0  MISS:          0  HIT %:       -nan  MISS %:       -nan   MPKI: 0
L2C TOTAL     ACCESS:    3075654  HIT:    2400458  MISS:     675196  HIT %:    78.0471  MISS %:    21.9529   MPKI: 3.37562
L2C LOAD      ACCESS:       3340  HIT:          0  MISS:       3340  HIT %:          0  MISS %:        100   MPKI: 0.0166982
L2C RFO       ACCESS:          0  HIT:          0  MISS:          0  HIT %:       -nan  MISS %:       -nan   MPKI: 0
L2C PREFETCH  ACCESS:    1551173  HIT:    1086502  MISS:     464671  HIT %:    70.0439  MISS %:    29.9561   MPKI: 2.32311
L2C WRITEBACK ACCESS:     468011  HIT:     261756  MISS:     206255  HIT %:    55.9295  MISS %:    44.0705   MPKI: 1.03116
PSCL5 TOTAL     ACCESS:    1053130  HIT:    1053130  MISS:          0  HIT %:        100  MISS %:          0   MPKI: 0
PSCL5 LOAD      ACCESS:          0  HIT:          0  MISS:          0  HIT %:       -nan  MISS %:       -nan   MPKI: 0
PSCL5 RFO       ACCESS:          0  HIT:          0  MISS:          0  HIT %:       -nan  MISS %:       -nan   MPKI: 0
PSCL5 PREFETCH  ACCESS:          0  HIT:          0  MISS:          0  HIT %:       -nan  MISS %:       -nan   MPKI: 0
PSCL5 WRITEBACK ACCESS:          0  HIT:          0  MISS:          0  HIT %:       -nan  MISS %:       -nan   MPKI: 0
PSCL4 TOTAL     ACCESS:    1053130  HIT:    1053130  MISS:          0  HIT %:        100  MISS %:          0   MPKI: 0
PSCL4 LOAD      ACCESS:          0  HIT:          0  MISS:          0  HIT %:       -nan  MISS %:       -nan   MPKI: 0
PSCL4 RFO       ACCESS:          0  HIT:          0  MISS:          0  HIT %:       -nan  MISS %:       -nan   MPKI: 0
PSCL4 PREFETCH  ACCESS:          0  HIT:          0  MISS:          0  HIT %:       -nan  MISS %:       -nan   MPKI: 0
PSCL4 WRITEBACK ACCESS:          0  HIT:          0  MISS:          0  HIT %:       -nan  MISS %:       -nan   MPKI: 0
PSCL3 TOTAL     ACCESS:    1053130  HIT:    1053130  MISS:          0  HIT %:        100  MISS %:          0   MPKI: 0
PSCL3 LOAD      ACCESS:          0  HIT:          0  MISS:          0  HIT %:       -nan  MISS %:       -nan   MPKI: 0
PSCL3 RFO       ACCESS:          0  HIT:          0  MISS:          0  HIT %:       -nan  MISS %:       -nan   MPKI: 0
PSCL3 PREFETCH  ACCESS:          0  HIT:          0  MISS:          0  HIT %:       -nan  MISS %:       -nan   MPKI: 0
PSCL3 WRITEBACK ACCESS:          0  HIT:          0  MISS:          0  HIT %:       -nan  MISS %:       -nan   MPKI: 0
PSCL2 TOTAL     ACCESS:    1051091  HIT:    1051076  MISS:         15  HIT %:    99.9986  MISS %: 0.00142709   MPKI: 7.49919e-05
PSCL2 LOAD      ACCESS:          0  HIT:          0  MISS:          0  HIT %:       -nan  MISS %:       -nan   MPKI: 0
PSCL2 RFO       ACCESS:          0  HIT:          0  MISS:          0  HIT %:       -nan  MISS %:       -nan   MPKI: 0
PSCL2 PREFETCH  ACCESS:          0  HIT:          0  MISS:          0  HIT %:       -nan  MISS %:       -nan   MPKI: 0
PSCL2 WRITEBACK ACCESS:          0  HIT:          0  MISS:          0  HIT %:       -nan  MISS %:       -nan   MPKI: 0
LLC TOTAL     ACCESS:     936916  HIT:     421135  MISS:     515781  HIT %:    44.9491  MISS %:    55.0509   MPKI: 2.57863
LLC LOAD      ACCESS:       3340  HIT:          0  MISS:       3340  HIT %:          0  MISS %:        100   MPKI: 0.0166982
LLC RFO       ACCESS:          0  HIT:          0  MISS:          0  HIT %:       -nan  MISS %:       -nan   MPKI: 0
LLC PREFETCH  ACCESS:     464671  HIT:          0  MISS:     464671  HIT %:          0  MISS %:        100   MPKI: 2.32311
LLC WRITEBACK ACCESS:     467975  HIT:     421125  MISS:      46850  HIT %:    89.9888  MISS %:    10.0112   MPKI: 0.234225

RAW hits: 0
Loads Generated: 29951834
Loads sent to L1D: 29951833
Stores Generated: 4062104
Stores sent to L1D: 4062104

CPU 1 cumulative IPC: 1.16455 instructions: 200013485 cycles: 171751350
ITLB TOTAL     ACCESS:   33213715  HIT:   33213715  MISS:          0  HIT %:        100  MISS %:          0   MPKI: 0
ITLB LOAD      ACCESS:          0  HIT:          0  MISS:          0  HIT %:       -nan  MISS %:       -nan   MPKI: 0
ITLB RFO       ACCESS:          0  HIT:          0  MISS:          0  HIT %:       -nan  MISS %:       -nan   MPKI: 0
ITLB PREFETCH  ACCESS:          0  HIT:          0  MISS:          0  HIT %:       -nan  MISS %:       -nan   MPKI: 0
ITLB WRITEBACK ACCESS:          0  HIT:          0  MISS:          0  HIT %:       -nan  MISS %:       -nan   MPKI: 0
DTLB TOTAL     ACCESS:   18110442  HIT:   18103129  MISS:       7313  HIT %:    99.9596  MISS %:    0.04038   MPKI: 0.0365625
DTLB LOAD      ACCESS:          0  HIT:          0  MISS:          0  HIT %:       -nan  MISS %:       -nan   MPKI: 0
DTLB RFO       ACCESS:          0  HIT:          0  MISS:          0  HIT %:       -nan  MISS %:       -nan   MPKI: 0
DTLB PREFETCH  ACCESS:          0  HIT:          0  MISS:          0  HIT %:       -nan  MISS %:       -nan   MPKI: 0
DTLB WRITEBACK ACCESS:          0  HIT:          0  MISS:          0  HIT %:       -nan  MISS %:       -nan   MPKI: 0
STLB TOTAL     ACCESS:   11280880  HIT:   11273567  MISS:       7313  HIT %:    99.9352  MISS %:  0.0648265   MPKI: 0.0365625
STLB LOAD      ACCESS:          0  HIT:          0  MISS:          0  HIT %:       -nan  MISS %:       -nan   MPKI: 0
STLB RFO       ACCESS:          0  HIT:          0  MISS:          0  HIT %:       -nan  MISS %:       -nan   MPKI: 0
STLB PREFETCH  ACCESS:          0  HIT:          0  MISS:          0  HIT %:       -nan  MISS %:       -nan   MPKI: 0
STLB WRITEBACK ACCESS:          0  HIT:          0  MISS:          0  HIT %:       -nan  MISS %:       -nan   MPKI: 0
L1D TOTAL     ACCESS:   76820180  HIT:   76352188  MISS:     467992  HIT %:    99.3908  MISS %:   0.609205   MPKI: 2.3398
L1D LOAD      ACCESS:   14530878  HIT:   14523501  MISS:       7377  HIT %:    99.9492  MISS %:  0.0507678   MPKI: 0.0368825
L1D RFO       ACCESS:    4061942  HIT:    4061942  MISS:          0  HIT %:        100  MISS %:          0   MPKI: 0
L1D PREFETCH  ACCESS:   58227360  HIT:   57766745  MISS:     460615  HIT %:    99.2089  MISS %:   0.791063   MPKI: 2.30292
L1D WRITEBACK ACCESS:          0  HIT:          0  MISS:          0  HIT %:       -nan  MISS %:       -nan   MPKI: 0
L1I TOTAL     ACCESS:   33213715  HIT:   33213715  MISS:          0  HIT %:        100  MISS %:          0   MPKI: 0
L1I LOAD      ACCESS:   33213715  HIT:   33213715  MISS:          0  HIT %:        100  MISS %:          0   MPKI: 0
L1I RFO       ACCESS:          0  HIT:          0  MISS:          0  HIT %:       -nan  MISS %:       -nan   MPKI: 0
L1I PREFETCH  ACCESS:          0  HIT:          0  MISS:          0  HIT %:       -nan  MISS %:       -nan   MPKI: 0
L1I WRITEBACK ACCESS:          0  HIT:          0  MISS:          0  HIT %:       -nan  MISS %:       -nan   MPKI: 0
L2C TOTAL     ACCESS:    3110526  HIT:    2434831  MISS:     675695  HIT %:    78.2771  MISS %:    21.7229   MPKI: 3.37825
L2C LOAD      ACCESS:       3342  HIT:          0  MISS:       3342  HIT %:          0  MISS %:        100   MPKI: 0.0167089
L2C RFO       ACCESS:          0  HIT:          0  MISS:          0  HIT %:       -nan  MISS %:       -nan   MPKI: 0
L2C PREFETCH  ACCESS:    1585644  HIT:    1120994  MISS:     464650  HIT %:    70.6964  MISS %:    29.3036   MPKI: 2.32309
L2C WRITEBACK ACCESS:     467992  HIT:     261219  MISS:     206773  HIT %:     55.817  MISS %:     44.183   MPKI: 1.0338
PSCL5 TOTAL     ACCESS:    1053548  HIT:    1053548  MISS:          0  HIT %:        100  MISS %:          0   MPKI: 0
PSCL5 LOAD      ACCESS:          0  HIT:          0  MISS:          0  HIT %:       -nan  MISS %:       -nan   MPKI: 0
PSCL5 RFO       ACCESS:          0  HIT:          0  MISS:          0  HIT %:       -nan  MISS %:       -nan   MPKI: 0
PSCL5 PREFETCH  ACCESS:          0  HIT:          0  MISS:          0  HIT %:       -nan  MISS %:       -nan   MPKI: 0
PSCL5 WRITEBACK ACCESS:          0  HIT:          0  MISS:          0  HIT %:       -nan  MISS %:       -nan   MPKI: 0
PSCL4 TOTAL     ACCESS:    1053548  HIT:    1053548  MISS:          0  HIT %:        100  MISS %:          0   MPKI: 0
PSCL4 LOAD      ACCESS:          0  HIT:          0  MISS:          0  HIT %:       -nan  MISS %:       -nan   MPKI: 0
PSCL4 RFO       ACCESS:          0  HIT:          0  MISS:          0  HIT %:       -nan  MISS %:       -nan   MPKI: 0
PSCL4 PREFETCH  ACCESS:          0  HIT:          0  MISS:          0  HIT %:       -nan  MISS %:       -nan   MPKI: 0
PSCL4 WRITEBACK ACCESS:          0  HIT:          0  MISS:          0  HIT %:       -nan  MISS %:       -nan   MPKI: 0
PSCL3 TOTAL     ACCESS:    1053548  HIT:    1053548  MISS:          0  HIT %:        100  MISS %:          0   MPKI: 0
PSCL3 LOAD      ACCESS:          0  HIT:          0  MISS:          0  HIT %:       -nan  MISS %:       -nan   MPKI: 0
PSCL3 RFO       ACCESS:          0  HIT:          0  MISS:          0  HIT %:       -nan  MISS %:       -nan   MPKI: 0
PSCL3 PREFETCH  ACCESS:          0  HIT:          0  MISS:          0  HIT %:       -nan  MISS %:       -nan   MPKI: 0
PSCL3 WRITEBACK ACCESS:          0  HIT:          0  MISS:          0  HIT %:       -nan  MISS %:       -nan   MPKI: 0
PSCL2 TOTAL     ACCESS:    1051556  HIT:    1051541  MISS:         15  HIT %:    99.9986  MISS %: 0.00142646   MPKI: 7.49949e-05
PSCL2 LOAD      ACCESS:          0  HIT:          0  MISS:          0  HIT %:       -nan  MISS %:       -nan   MPKI: 0
PSCL2 RFO       ACCESS:          0  HIT:          0  MISS:          0  HIT %:       -nan  MISS %:       -nan   MPKI: 0
PSCL2 PREFETCH  ACCESS:          0  HIT:          0  MISS:          0  HIT %:       -nan  MISS %:       -nan   MPKI: 0
PSCL2 WRITEBACK ACCESS:          0  HIT:          0  MISS:          0  HIT %:       -nan  MISS %:       -nan   MPKI: 0
LLC TOTAL     ACCESS:     936852  HIT:     421180  MISS:     515672  HIT %:    44.9569  MISS %:    55.0431   MPKI: 2.57819
LLC LOAD      ACCESS:       3342  HIT:          0  MISS:       3342  HIT %:          0  MISS %:        100   MPKI: 0.0167089
LLC RFO       ACCESS:          0  HIT:          0  MISS:          0  HIT %:       -nan  MISS %:       -nan   MPKI: 0
LLC PREFETCH  ACCESS:     464650  HIT:          0  MISS:     464650  HIT %:          0  MISS %:        100   MPKI: 2.32309
LLC WRITEBACK ACCESS:     467930  HIT:     421178  MISS:      46752  HIT %:    90.0088  MISS %:    9.99124   MPKI: 0.233744

RAW hits: 0
Loads Generated: 29950629
Loads sent to L1D: 29950628
Stores Generated: 4061943
Stores sent to L1D: 4061942

CPU 2 cumulative IPC: 1.16451 instructions: 200006420 cycles: 171751350
ITLB TOTAL     ACCESS:   33212509  HIT:   33212509  MISS:          0  HIT %:        100  MISS %:          0   MPKI: 0
ITLB LOAD      ACCESS:          0  HIT:          0  MISS:          0  HIT %:       -nan  MISS %:       -nan   MPKI: 0
ITLB RFO       ACCESS:          0  HIT:          0  MISS:          0  HIT %:       -nan  MISS %:       -nan   MPKI: 0
ITLB PREFETCH  ACCESS:          0  HIT:          0  MISS:          0  HIT %:       -nan  MISS %:       -nan   MPKI: 0
ITLB WRITEBACK ACCESS:          0  HIT:          0  MISS:          0  HIT %:       -nan  MISS %:       -nan   MPKI: 0
DTLB TOTAL     ACCESS:   18108574  HIT:   18101261  MISS:       7313  HIT %:    99.9596  MISS %:  0.0403842   MPKI: 0.0365638
DTLB LOAD      ACCESS:          0  HIT:          0  MISS:          0  HIT %:       -nan  MISS %:       -nan   MPKI: 0
DTLB RFO       ACCESS:          0  HIT:          0  MISS:          0  HIT %:       -nan  MISS %:       -nan   MPKI: 0
DTLB PREFETCH  ACCESS:          0  HIT:          0  MISS:          0  HIT %:       -nan  MISS %:       -nan   MPKI: 0
DTLB WRITEBACK ACCESS:          0  HIT:          0  MISS:          0  HIT %:       -nan  MISS %:       -nan   MPKI: 0
STLB TOTAL     ACCESS:   11279907  HIT:   11272594  MISS:       7313  HIT %:    99.9352  MISS %:  0.0648321   MPKI: 0.0365638
STLB LOAD      ACCESS:          0  HIT:          0  MISS:          0  HIT %:       -nan  MISS %:       -nan   MPKI: 0
STLB RFO       ACCESS:          0  HIT:          0  MISS:          0  HIT %:       -nan  MISS %:       -nan   MPKI: 0
STLB PREFETCH  ACCESS:          0  HIT:          0  MISS:          0  HIT %:       -nan  MISS %:       -nan   MPKI: 0
STLB WRITEBACK ACCESS:          0  HIT:          0  MISS:          0  HIT %:       -nan  MISS %:       -nan   MPKI: 0
L1D TOTAL     ACCESS:   76822794  HIT:   76354822  MISS:     467972  HIT %:    99.3908  MISS %:   0.609158   MPKI: 2.33978
L1D LOAD      ACCESS:   14529255  HIT:   14521880  MISS:       7375  HIT %:    99.9492  MISS %:  0.0507597   MPKI: 0.0368738
L1D RFO       ACCESS:    4061799  HIT:    4061799  MISS:          0  HIT %:        100  MISS %:          0   MPKI: 0
L1D PREFETCH  ACCESS:   58231740  HIT:   57771143  MISS:     460597  HIT %:     99.209  MISS %:   0.790972   MPKI: 2.30291
L1D WRITEBACK ACCESS:          0  HIT:          0  MISS:          0  HIT %:       -nan  MISS %:       -nan   MPKI: 0
L1I TOTAL     ACCESS:   33212509  HIT:   33212509  MISS:          0  HIT %:        100  MISS %:          0   MPKI: 0
L1I LOAD      ACCESS:   33212509  HIT:   33212509  MISS:          0  HIT %:        100  MISS %:          0   MPKI: 0
L1I RFO       ACCESS:          0  HIT:          0  MISS:          0  HIT %:       -nan  MISS %:       -nan   MPKI: 0
L1I PREFETCH  ACCESS:          0  HIT:          0  MISS:          0  HIT %:       -nan  MISS %:       -nan   MPKI: 0
L1I WRITEBACK ACCESS:          0  HIT:          0  MISS:          0  HIT %:       -nan  MISS %:       -nan   MPKI: 0
L2C TOTAL     ACCESS:    3066334  HIT:    2389014  MISS:     677320  HIT %:    77.9111  MISS %:    22.0889   MPKI: 3.38649
L2C LOAD      ACCESS:       3341  HIT:          0  MISS:       3341  HIT %:          0  MISS %:        100   MPKI: 0.0167045
L2C RFO       ACCESS:          0  HIT:          0  MISS:          0  HIT %:       -nan  MISS %:       -nan   MPKI: 0
L2C PREFETCH  ACCESS:    1541531  HIT:    1076897  MISS:     464634  HIT %:    69.8589  MISS %:    30.1411   MPKI: 2.3231
L2C WRITEBACK ACCESS:     467972  HIT:     259556  MISS:     208416  HIT %:     55.464  MISS %:     44.536   MPKI: 1.04205
PSCL5 TOTAL     ACCESS:    1053490  HIT:    1053490  MISS:          0  HIT %:        100  MISS %:          0   MPKI: 0
PSCL5 LOAD      ACCESS:          0  HIT:          0  MISS:          0  HIT %:       -nan  MISS %:       -nan   MPKI: 0
PSCL5 RFO       ACCESS:          0  HIT:          0  MISS:          0  HIT %:       -nan  MISS %:       -nan   MPKI: 0
PSCL5 PREFETCH  ACCESS:          0  HIT:          0  MISS:          0  HIT %:       -nan  MISS %:       -nan   MPKI: 0
PSCL5 WRITEBACK ACCESS:          0  HIT:          0  MISS:          0  HIT %:       -nan  MISS %:       -nan   MPKI: 0
PSCL4 TOTAL     ACCESS:    1053490  HIT:    1053490  MISS:          0  HIT %:        100  MISS %:          0   MPKI: 0
PSCL4 LOAD      ACCESS:          0  HIT:          0  MISS:          0  HIT %:       -nan  MISS %:       -nan   MPKI: 0
PSCL4 RFO       ACCESS:          0  HIT:          0  MISS:          0  HIT %:       -nan  MISS %:       -nan   MPKI: 0
PSCL4 PREFETCH  ACCESS:          0  HIT:          0  MISS:          0  HIT %:       -nan  MISS %:       -nan   MPKI: 0
PSCL4 WRITEBACK ACCESS:          0  HIT:          0  MISS:          0  HIT %:       -nan  MISS %:       -nan   MPKI: 0
PSCL3 TOTAL     ACCESS:    1053490  HIT:    1053490  MISS:          0  HIT %:        100  MISS %:          0   MPKI: 0
PSCL3 LOAD      ACCESS:          0  HIT:          0  MISS:          0  HIT %:       -nan  MISS %:       -nan   MPKI: 0
PSCL3 RFO       ACCESS:          0  HIT:          0  MISS:          0  HIT %:       -nan  MISS %:       -nan   MPKI: 0
PSCL3 PREFETCH  ACCESS:          0  HIT:          0  MISS:          0  HIT %:       -nan  MISS %:       -nan   MPKI: 0
PSCL3 WRITEBACK ACCESS:          0  HIT:          0  MISS:          0  HIT %:       -nan  MISS %:       -nan   MPKI: 0
PSCL2 TOTAL     ACCESS:    1051602  HIT:    1051587  MISS:         15  HIT %:    99.9986  MISS %:  0.0014264   MPKI: 7.49976e-05
PSCL2 LOAD      ACCESS:          0  HIT:          0  MISS:          0  HIT %:       -nan  MISS %:       -nan   MPKI: 0
PSCL2 RFO       ACCESS:          0  HIT:          0  MISS:          0  HIT %:       -nan  MISS %:       -nan   MPKI: 0
PSCL2 PREFETCH  ACCESS:          0  HIT:          0  MISS:          0  HIT %:       -nan  MISS %:       -nan   MPKI: 0
PSCL2 WRITEBACK ACCESS:          0  HIT:          0  MISS:          0  HIT %:       -nan  MISS %:       -nan   MPKI: 0
LLC TOTAL     ACCESS:     936881  HIT:     421179  MISS:     515702  HIT %:    44.9554  MISS %:    55.0446   MPKI: 2.57843
LLC LOAD      ACCESS:       3341  HIT:          0  MISS:       3341  HIT %:          0  MISS %:        100   MPKI: 0.0167045
LLC RFO       ACCESS:          0  HIT:          0  MISS:          0  HIT %:       -nan  MISS %:       -nan   MPKI: 0
LLC PREFETCH  ACCESS:     464634  HIT:          0  MISS:     464634  HIT %:          0  MISS %:        100   MPKI: 2.3231
LLC WRITEBACK ACCESS:     467977  HIT:     421179  MISS:      46798  HIT %:    89.9999  MISS %:    10.0001   MPKI: 0.233982

RAW hits: 0
Loads Generated: 29949572
Loads sent to L1D: 29949571
Stores Generated: 4061799
Stores sent to L1D: 4061798

CPU 3 cumulative IPC: 1.16447 instructions: 200000003 cycles: 171751350
ITLB TOTAL     ACCESS:   33211455  HIT:   33211455  MISS:          0  HIT %:        100  MISS %:          0   MPKI: 0
ITLB LOAD      ACCESS:          0  HIT:          0  MISS:          0  HIT %:       -nan  MISS %:       -nan   MPKI: 0
ITLB RFO       ACCESS:          0  HIT:          0  MISS:          0  HIT %:       -nan  MISS %:       -nan   MPKI: 0
ITLB PREFETCH  ACCESS:          0  HIT:          0  MISS:          0  HIT %:       -nan  MISS %:       -nan   MPKI: 0
ITLB WRITEBACK ACCESS:          0  HIT:          0  MISS:          0  HIT %:       -nan  MISS %:       -nan   MPKI: 0
DTLB TOTAL     ACCESS:   18108860  HIT:   18101548  MISS:       7312  HIT %:    99.9596  MISS %:   0.040378   MPKI: 0.03656
DTLB LOAD      ACCESS:          0  HIT:          0  MISS:          0  HIT %:       -nan  MISS %:       -nan   MPKI: 0
DTLB RFO       ACCESS:          0  HIT:          0  MISS:          0  HIT %:       -nan  MISS %:       -nan   MPKI: 0
DTLB PREFETCH  ACCESS:          0  HIT:          0  MISS:          0  HIT %:       -nan  MISS %:       -nan   MPKI: 0
DTLB WRITEBACK ACCESS:          0  HIT:          0  MISS:          0  HIT %:       -nan  MISS %:       -nan   MPKI: 0
STLB TOTAL     ACCESS:   11279463  HIT:   11272151  MISS:       7312  HIT %:    99.9352  MISS %:  0.0648258   MPKI: 0.03656
STLB LOAD      ACCESS:          0  HIT:          0  MISS:          0  HIT %:       -nan  MISS %:       -nan   MPKI: 0
STLB RFO       ACCESS:          0  HIT:          0  MISS:          0  HIT %:       -nan  MISS %:       -nan   MPKI: 0
STLB PREFETCH  ACCESS:          0  HIT:          0  MISS:          0  HIT %:       -nan  MISS %:       -nan   MPKI: 0
STLB WRITEBACK ACCESS:          0  HIT:          0  MISS:          0  HIT %:       -nan  MISS %:       -nan   MPKI: 0
L1D TOTAL     ACCESS:   76825764  HIT:   76357812  MISS:     467952  HIT %:    99.3909  MISS %:   0.609108   MPKI: 2.33976
L1D LOAD      ACCESS:   14529375  HIT:   14521992  MISS:       7383  HIT %:    99.9492  MISS %:  0.0508143   MPKI: 0.036915
L1D RFO       ACCESS:    4061665  HIT:    4061665  MISS:          0  HIT %:        100  MISS %:          0   MPKI: 0
L1D PREFETCH  ACCESS:   58234724  HIT:   57774155  MISS:     460569  HIT %:    99.2091  MISS %:   0.790884   MPKI: 2.30284
L1D WRITEBACK ACCESS:          0  HIT:          0  MISS:          0  HIT %:       -nan  MISS %:       -nan   MPKI: 0
L1I TOTAL     ACCESS:   33211455  HIT:   33211455  MISS:          0  HIT %:        100  MISS %:          0   MPKI: 0
L1I LOAD      ACCESS:   33211455  HIT:   33211455  MISS:          0  HIT %:        100  MISS %:          0   MPKI: 0
L1I RFO       ACCESS:          0  HIT:          0  MISS:          0  HIT %:       -nan  MISS %:       -nan   MPKI: 0
L1I PREFETCH  ACCESS:          0  HIT:          0  MISS:          0  HIT %:       -nan  MISS %:       -nan   MPKI: 0
L1I WRITEBACK ACCESS:          0  HIT:          0  MISS:          0  HIT %:       -nan  MISS %:       -nan   MPKI: 0
L2C TOTAL     ACCESS:    3082733  HIT:    2406102  MISS:     676631  HIT %:    78.0509  MISS %:    21.9491   MPKI: 3.38315
L2C LOAD      ACCESS:       3341  HIT:          0  MISS:       3341  HIT %:          0  MISS %:        100   MPKI: 0.016705
L2C RFO       ACCESS:          0  HIT:          0  MISS:          0  HIT %:       -nan  MISS %:       -nan   MPKI: 0
L2C PREFETCH  ACCESS:    1558518  HIT:    1093916  MISS:     464602  HIT %:    70.1895  MISS %:    29.8105   MPKI: 2.32301
L2C WRITEBACK ACCESS:     467951  HIT:     260191  MISS:     207760  HIT %:    55.6022  MISS %:    44.3978   MPKI: 1.0388
PSCL5 TOTAL     ACCESS:    1052923  HIT:    1052923  MISS:          0  HIT %:        100  MISS %:          0   MPKI: 0
PSCL5 LOAD      ACCESS:          0  HIT:          0  MISS:          0  HIT %:       -nan  MISS %:       -nan   MPKI: 0
PSCL5 RFO       ACCESS:          0  HIT:          0  MISS:          0  HIT %:       -nan  MISS %:       -nan   MPKI: 0
PSCL5 PREFETCH  ACCESS:          0  HIT:          0  MISS:          0  HIT %:       -nan  MISS %:       -nan   MPKI: 0
PSCL5 WRITEBACK ACCESS:          0  HIT:          0  MISS:          0  HIT %:       -nan  MISS %:       -nan   MPKI: 0
PSCL4 TOTAL     ACCESS:    1052923  HIT:    1052923  MISS:          0  HIT %:        100  MISS %:          0   MPKI: 0
PSCL4 LOAD      ACCESS:          0  HIT:          0  MISS:          0  HIT %:       -nan  MISS %:       -nan   MPKI: 0
PSCL4 RFO       ACCESS:          0  HIT:          0  MISS:          0  HIT %:       -nan  MISS %:       -nan   MPKI: 0
PSCL4 PREFETCH  ACCESS:          0  HIT:          0  MISS:          0  HIT %:       -nan  MISS %:       -nan   MPKI: 0
PSCL4 WRITEBACK ACCESS:          0  HIT:          0  MISS:          0  HIT %:       -nan  MISS %:       -nan   MPKI: 0
PSCL3 TOTAL     ACCESS:    1052923  HIT:    1052923  MISS:          0  HIT %:        100  MISS %:          0   MPKI: 0
PSCL3 LOAD      ACCESS:          0  HIT:          0  MISS:          0  HIT %:       -nan  MISS %:       -nan   MPKI: 0
PSCL3 RFO       ACCESS:          0  HIT:          0  MISS:          0  HIT %:       -nan  MISS %:       -nan   MPKI: 0
PSCL3 PREFETCH  ACCESS:          0  HIT:          0  MISS:          0  HIT %:       -nan  MISS %:       -nan   MPKI: 0
PSCL3 WRITEBACK ACCESS:          0  HIT:          0  MISS:          0  HIT %:       -nan  MISS %:       -nan   MPKI: 0
PSCL2 TOTAL     ACCESS:    1050850  HIT:    1050835  MISS:         15  HIT %:    99.9986  MISS %: 0.00142742   MPKI: 7.5e-05
PSCL2 LOAD      ACCESS:          0  HIT:          0  MISS:          0  HIT %:       -nan  MISS %:       -nan   MPKI: 0
PSCL2 RFO       ACCESS:          0  HIT:          0  MISS:          0  HIT %:       -nan  MISS %:       -nan   MPKI: 0
PSCL2 PREFETCH  ACCESS:          0  HIT:          0  MISS:          0  HIT %:       -nan  MISS %:       -nan   MPKI: 0
PSCL2 WRITEBACK ACCESS:          0  HIT:          0  MISS:          0  HIT %:       -nan  MISS %:       -nan   MPKI: 0
LLC TOTAL     ACCESS:     936877  HIT:     420922  MISS:     515955  HIT %:    44.9282  MISS %:    55.0718   MPKI: 2.57977
LLC LOAD      ACCESS:       3341  HIT:          0  MISS:       3341  HIT %:          0  MISS %:        100   MPKI: 0.016705
LLC RFO       ACCESS:          0  HIT:          0  MISS:          0  HIT %:       -nan  MISS %:       -nan   MPKI: 0
LLC PREFETCH  ACCESS:     464602  HIT:          0  MISS:     464602  HIT %:          0  MISS %:        100   MPKI: 2.32301
LLC WRITEBACK ACCESS:     468006  HIT:     420920  MISS:      47086  HIT %:     89.939  MISS %:     10.061   MPKI: 0.23543

RAW hits: 0
Loads Generated: 29948615
Loads sent to L1D: 29948614
Stores Generated: 4061664
Stores sent to L1D: 4061665

Region of Interest Statistics

CPU 0 cumulative IPC: 1.1646 instructions: 200000000 cycles: 171733512
ITLB TOTAL     ACCESS:   33211468  HIT:   33211468  MISS:          0  HIT %:        100  MISS %:          0   MPKI: 0
ITLB LOAD TRANSLATION ACCESS:   33211468  HIT:   33211468  MISS:          0  HIT %:        100  MISS %:          0   MPKI: 0
ITLB PREFETCH  REQUESTED:          0  ISSUED:          0  USEFUL:          0  USELESS:          0
ITLB USEFUL LOAD PREFETCHES:          0 PREFETCH ISSUED TO LOWER LEVEL:          0  ACCURACY: -nan
ITLB TIMELY PREFETCHES:          0 LATE PREFETCHES: 0 DROPPED PREFETCHES: 0
ITLB PREFETCHES SAME FILL-ORIGIN LEVEL: 0 DIFFERENT FILL-ORIGIN LEVEL: 0
ITLB AVERAGE MISS LATENCY: -nan cycles
ITLB RQ	ACCESS:   33214992	FORWARD:          0	MERGED:          0	TO_CACHE:   33214992

DTLB TOTAL     ACCESS:   18108641  HIT:   18101328  MISS:       7313  HIT %:    99.9596  MISS %:   0.040384   MPKI: 0.036565
DTLB LOAD TRANSLATION ACCESS:   18108641  HIT:   18101328  MISS:       7313  HIT %:    99.9596  MISS %:   0.040384   MPKI: 0.036565
DTLB PREFETCH  REQUESTED:          0  ISSUED:          0  USEFUL:          0  USELESS:          0
DTLB USEFUL LOAD PREFETCHES:          0 PREFETCH ISSUED TO LOWER LEVEL:          0  ACCURACY: -nan
DTLB TIMELY PREFETCHES:          0 LATE PREFETCHES: 0 DROPPED PREFETCHES: 0
DTLB PREFETCHES SAME FILL-ORIGIN LEVEL: 0 DIFFERENT FILL-ORIGIN LEVEL: 0
DTLB AVERAGE MISS LATENCY: 119.829 cycles
DTLB RQ	ACCESS:   18634482	FORWARD:          0	MERGED:     523962	TO_CACHE:   18110520

STLB TOTAL     ACCESS:   11280041  HIT:   11272728  MISS:       7313  HIT %:    99.9352  MISS %:  0.0648313   MPKI: 0.036565
STLB LOAD TRANSLATION ACCESS:       7313  HIT:          0  MISS:       7313  HIT %:          0  MISS %:        100   MPKI: 0.036565
STLB TRANSLATION FROM L1D PREFETCHER ACCESS:   11272728  HIT:   11272728  MISS:          0  HIT %:        100  MISS %:          0   MPKI: 0
STLB PREFETCH  REQUESTED:          0  ISSUED:          0  USEFUL:          1  USELESS:          0
STLB USEFUL LOAD PREFETCHES:          1 PREFETCH ISSUED TO LOWER LEVEL:          0  ACCURACY: inf
STLB TIMELY PREFETCHES:          1 LATE PREFETCHES: 1538 DROPPED PREFETCHES: 1044278
STLB PREFETCHES SAME FILL-ORIGIN LEVEL: 0 DIFFERENT FILL-ORIGIN LEVEL: 0
STLB AVERAGE MISS LATENCY: 108.454 cycles
STLB RQ	ACCESS:   66691053	FORWARD:          0	MERGED:   54296313	TO_CACHE:   12394740

STLB Hit, L1D data hit: 0
STLB Hit, L2C data hit: 0
STLB Hit, LLC data hit: 0
STLB Hit, LLC data miss: 0
STLB STLB hints to L2: 0
L1D TOTAL     ACCESS:   76808298  HIT:   76340352  MISS:     467946  HIT %:    99.3908  MISS %:   0.609239   MPKI: 2.33973
L1D LOAD      ACCESS:   14529090  HIT:   14521698  MISS:       7392  HIT %:    99.9491  MISS %:  0.0508772   MPKI: 0.03696
L1D RFO       ACCESS:    4061664  HIT:    4061664  MISS:          0  HIT %:        100  MISS %:          0   MPKI: 0
L1D PREFETCH  ACCESS:   58217544  HIT:   57756990  MISS:     460554  HIT %:    99.2089  MISS %:   0.791091   MPKI: 2.30277
L1D PREFETCH  REQUESTED:  179199306  ISSUED:  179199306  USEFUL:     460606  USELESS:          0
L1D USEFUL LOAD PREFETCHES:     460606 PREFETCH ISSUED TO LOWER LEVEL:    2452511  ACCURACY: 18.781
L1D TIMELY PREFETCHES:     460606 LATE PREFETCHES: 4052 DROPPED PREFETCHES: 2983458
L1D PREFETCHES SAME FILL-ORIGIN LEVEL: 464671 DIFFERENT FILL-ORIGIN LEVEL: 1987840
L1D AVERAGE MISS LATENCY: 184.625 cycles
L1D RQ	ACCESS:   29951833	FORWARD:          0	MERGED:   15379455	TO_CACHE:   14572378
L1D WQ	ACCESS:    4062104	FORWARD:          0	MERGED:          0	TO_CACHE:    4062104
L1D PQ	ACCESS:  112515566	FORWARD:          0	MERGED:   45831826	TO_CACHE:   66683740

L1D UNIQUE REGIONS ACCESSED: 0
L1D REGIONS CONFLICTS: 0
L1D Cross Page Prefetch Requests: 14870225
L1D Same Page Prefetch Requests: 156141821
L1D ROI Sum of L1D PQ occupancy: 870690128
L1D PREFETCHES PUSHED FROM L2C: 0
L1I TOTAL     ACCESS:   33211468  HIT:   33211468  MISS:          0  HIT %:        100  MISS %:          0   MPKI: 0
L1I LOAD      ACCESS:   33211468  HIT:   33211468  MISS:          0  HIT %:        100  MISS %:          0   MPKI: 0
L1I PREFETCH  REQUESTED:          0  ISSUED:          0  USEFUL:          0  USELESS:          0
L1I USEFUL LOAD PREFETCHES:          0 PREFETCH ISSUED TO LOWER LEVEL:          0  ACCURACY: -nan
L1I TIMELY PREFETCHES:          0 LATE PREFETCHES: 0 DROPPED PREFETCHES: 0
L1I PREFETCHES SAME FILL-ORIGIN LEVEL: 0 DIFFERENT FILL-ORIGIN LEVEL: 0
L1I AVERAGE MISS LATENCY: -nan cycles
L1I RQ	ACCESS:   80328116	FORWARD:          0	MERGED:   47113124	TO_CACHE:   33214992

BTB TOTAL     ACCESS:   59897334  HIT:   59897333  MISS:          1  HIT %:        100  MISS %: 1.66952e-06   MPKI: 5e-06
BTB BRANCH_DIRECT_JUMP	ACCESS:          0  HIT:          0  MISS:          0
BTB BRANCH_INDIRECT	ACCESS:          0  HIT:          0  MISS:          0
BTB BRANCH_CONDITIONAL	ACCESS:   59897334  HIT:   59897333  MISS:          1
BTB BRANCH_DIRECT_CALL	ACCESS:          0  HIT:          0  MISS:          0
BTB BRANCH_INDIRECT_CALL	ACCESS:          0  HIT:          0  MISS:          0
BTB BRANCH_RETURN	ACCESS:          0  HIT:          0  MISS:          0
BTB BRANCH_OTHER ACCESS:          0  HIT:          0  MISS:          0

L2C TOTAL     ACCESS:    3075324  HIT:    2400198  MISS:     675126  HIT %:     78.047  MISS %:     21.953   MPKI: 3.37563
L2C LOAD      ACCESS:       3340  HIT:          0  MISS:       3340  HIT %:          0  MISS %:        100   MPKI: 0.0167
L2C DATA LOAD MPKI: 0.0167
L2C INSTRUCTION LOAD MPKI: 0
L2C PREFETCH  ACCESS:    1550911  HIT:    1086302  MISS:     464609  HIT %:    70.0428  MISS %:    29.9572   MPKI: 2.32305
L2C DATA PREFETCH MPKI: 2.32305
L2C INSTRUCTION PREFETCH MPKI: 0
L2C WRITEBACK ACCESS:     467944  HIT:     261697  MISS:     206247  HIT %:    55.9249  MISS %:    44.0751   MPKI: 1.03123
L2C LOAD TRANSLATION ACCESS:       7313  HIT:       7312  MISS:          1  HIT %:    99.9863  MISS %:  0.0136743   MPKI: 5e-06
L2C TRANSLATION FROM L1D PREFETCHER ACCESS:    1045816  HIT:    1044887  MISS:        929  HIT %:    99.9112  MISS %:  0.0888302   MPKI: 0.004645
L2C PREFETCH  REQUESTED:          0  ISSUED:          0  USEFUL:        929  USELESS:     464294
L2C USEFUL LOAD PREFETCHES:        929 PREFETCH ISSUED TO LOWER LEVEL:     464671  ACCURACY: 0.199926
L2C TIMELY PREFETCHES:        929 LATE PREFETCHES: 0 DROPPED PREFETCHES: 0
L2C PREFETCHES SAME FILL-ORIGIN LEVEL: 93969 DIFFERENT FILL-ORIGIN LEVEL: 0
L2C AVERAGE MISS LATENCY: 149.652 cycles
L2C RQ	ACCESS:    1056470	FORWARD:          0	MERGED:          0	TO_CACHE:    1056470
L2C WQ	ACCESS:     468011	FORWARD:          0	MERGED:          0	TO_CACHE:     468011
L2C PQ	ACCESS:    2452511	FORWARD:          0	MERGED:        533	TO_CACHE:    2451978

L2C Instructions Evicting Data 0
L2C Translations Evicting Data 930
L2C Data Evicting Data 467211
L2C Instructions Evicting Instructions 0
L2C Translations Evicting Instructions 0
L2C Data Evicting Instructions 0
L2C Instructions Evicting Translations 0
L2C Translations Evicting Translations 0
L2C Data Evicting Translations 800
L2C Dense regions hint from L2: 0
PSCL5 TOTAL     ACCESS:    1053129  HIT:    1053129  MISS:          0  HIT %:        100  MISS %:          0   MPKI: 0
PSCL5 LOAD TRANSLATION ACCESS:       7313  HIT:       7313  MISS:          0  HIT %:        100  MISS %:          0   MPKI: 0
PSCL5 TRANSLATION FROM L1D PREFETCHER ACCESS:    1045816  HIT:    1045816  MISS:          0  HIT %:        100  MISS %:          0   MPKI: 0
PSCL5 PREFETCH  REQUESTED:          0  ISSUED:          0  USEFUL:          0  USELESS:          0
PSCL5 USEFUL LOAD PREFETCHES:          0 PREFETCH ISSUED TO LOWER LEVEL:          0  ACCURACY: -nan
PSCL5 TIMELY PREFETCHES:          0 LATE PREFETCHES: 0 DROPPED PREFETCHES: 0
PSCL5 PREFETCHES SAME FILL-ORIGIN LEVEL: 0 DIFFERENT FILL-ORIGIN LEVEL: 0

PSCL4 TOTAL     ACCESS:    1053129  HIT:    1053129  MISS:          0  HIT %:        100  MISS %:          0   MPKI: 0
PSCL4 LOAD TRANSLATION ACCESS:       7313  HIT:       7313  MISS:          0  HIT %:        100  MISS %:          0   MPKI: 0
PSCL4 TRANSLATION FROM L1D PREFETCHER ACCESS:    1045816  HIT:    1045816  MISS:          0  HIT %:        100  MISS %:          0   MPKI: 0
PSCL4 PREFETCH  REQUESTED:          0  ISSUED:          0  USEFUL:          0  USELESS:          0
PSCL4 USEFUL LOAD PREFETCHES:          0 PREFETCH ISSUED TO LOWER LEVEL:          0  ACCURACY: -nan
PSCL4 TIMELY PREFETCHES:          0 LATE PREFETCHES: 0 DROPPED PREFETCHES: 0
PSCL4 PREFETCHES SAME FILL-ORIGIN LEVEL: 0 DIFFERENT FILL-ORIGIN LEVEL: 0

PSCL3 TOTAL     ACCESS:    1053129  HIT:    1053129  MISS:          0  HIT %:        100  MISS %:          0   MPKI: 0
PSCL3 LOAD TRANSLATION ACCESS:       7313  HIT:       7313  MISS:          0  HIT %:        100  MISS %:          0   MPKI: 0
PSCL3 TRANSLATION FROM L1D PREFETCHER ACCESS:    1045816  HIT:    1045816  MISS:          0  HIT %:        100  MISS %:          0   MPKI: 0
PSCL3 PREFETCH  REQUESTED:          0  ISSUED:          0  USEFUL:          0  USELESS:          0
PSCL3 USEFUL LOAD PREFETCHES:          0 PREFETCH ISSUED TO LOWER LEVEL:          0  ACCURACY: -nan
PSCL3 TIMELY PREFETCHES:          0 LATE PREFETCHES: 0 DROPPED PREFETCHES: 0
PSCL3 PREFETCHES SAME FILL-ORIGIN LEVEL: 0 DIFFERENT FILL-ORIGIN LEVEL: 0

PSCL2 TOTAL     ACCESS:    1051090  HIT:    1051075  MISS:         15  HIT %:    99.9986  MISS %: 0.00142709   MPKI: 7.5e-05
PSCL2 LOAD TRANSLATION ACCESS:       7313  HIT:       7298  MISS:         15  HIT %:    99.7949  MISS %:   0.205114   MPKI: 7.5e-05
PSCL2 TRANSLATION FROM L1D PREFETCHER ACCESS:    1043777  HIT:    1043777  MISS:          0  HIT %:        100  MISS %:          0   MPKI: 0
PSCL2 PREFETCH  REQUESTED:          0  ISSUED:          0  USEFUL:          0  USELESS:          0
PSCL2 USEFUL LOAD PREFETCHES:          0 PREFETCH ISSUED TO LOWER LEVEL:          0  ACCURACY: -nan
PSCL2 TIMELY PREFETCHES:          0 LATE PREFETCHES: 0 DROPPED PREFETCHES: 0
PSCL2 PREFETCHES SAME FILL-ORIGIN LEVEL: 0 DIFFERENT FILL-ORIGIN LEVEL: 0

LLC TOTAL     ACCESS:     936793  HIT:     421071  MISS:     515722  HIT %:    44.9481  MISS %:    55.0519   MPKI: 2.57861
LLC LOAD      ACCESS:       3340  HIT:          0  MISS:       3340  HIT %:          0  MISS %:        100   MPKI: 0.0167
LLC PREFETCH  ACCESS:     464612  HIT:          0  MISS:     464612  HIT %:          0  MISS %:        100   MPKI: 2.32306
LLC WRITEBACK ACCESS:     467911  HIT:     421061  MISS:      46850  HIT %:    89.9874  MISS %:    10.0126   MPKI: 0.23425
LLC LOAD TRANSLATION ACCESS:          1  HIT:          0  MISS:          1  HIT %:          0  MISS %:        100   MPKI: 5e-06
LLC TRANSLATION FROM L1D PREFETCHER ACCESS:        929  HIT:         10  MISS:        919  HIT %:    1.07643  MISS %:    98.9236   MPKI: 0.004595
LLC PREFETCH  REQUESTED:          0  ISSUED:          0  USEFUL:          2  USELESS:    1865351
LLC USEFUL LOAD PREFETCHES:          2 PREFETCH ISSUED TO LOWER LEVEL:    1858560  ACCURACY: 0.00010761
LLC TIMELY PREFETCHES:          2 LATE PREFETCHES: 0 DROPPED PREFETCHES: 0
LLC PREFETCHES SAME FILL-ORIGIN LEVEL: 0 DIFFERENT FILL-ORIGIN LEVEL: 0
LLC AVERAGE MISS LATENCY: 672.539 cycles
LLC RQ	ACCESS:      17081	FORWARD:          0	MERGED:          0	TO_CACHE:      17081
LLC WQ	ACCESS:    1871888	FORWARD:          0	MERGED:          0	TO_CACHE:    1871888
LLC PQ	ACCESS:    1858562	FORWARD:          0	MERGED:          0	TO_CACHE:    1858562

LLC Dense regions hint to LLC: 0

RAW hits: 0
Loads Generated: 29948631
Loads sent to L1D: 29948630
Stores Generated: 4061667
Stores sent to L1D: 4061664
Major fault: 0 Minor fault: 9164
Allocated PAGES: 36656

CPU 1 cumulative IPC: 1.16455 instructions: 200000003 cycles: 171740303
ITLB TOTAL     ACCESS:   33211528  HIT:   33211528  MISS:          0  HIT %:        100  MISS %:          0   MPKI: 0
ITLB LOAD TRANSLATION ACCESS:   33211528  HIT:   33211528  MISS:          0  HIT %:        100  MISS %:          0   MPKI: 0
ITLB PREFETCH  REQUESTED:          0  ISSUED:          0  USEFUL:          0  USELESS:          0
ITLB USEFUL LOAD PREFETCHES:          0 PREFETCH ISSUED TO LOWER LEVEL:          0  ACCURACY: -nan
ITLB TIMELY PREFETCHES:          0 LATE PREFETCHES: 0 DROPPED PREFETCHES: 0
ITLB PREFETCHES SAME FILL-ORIGIN LEVEL: 0 DIFFERENT FILL-ORIGIN LEVEL: 0
ITLB AVERAGE MISS LATENCY: -nan cycles
ITLB RQ	ACCESS:   33213714	FORWARD:          0	MERGED:          0	TO_CACHE:   33213714

DTLB TOTAL     ACCESS:   18109276  HIT:   18101963  MISS:       7313  HIT %:    99.9596  MISS %:  0.0403826   MPKI: 0.036565
DTLB LOAD TRANSLATION ACCESS:   18109276  HIT:   18101963  MISS:       7313  HIT %:    99.9596  MISS %:  0.0403826   MPKI: 0.036565
DTLB PREFETCH  REQUESTED:          0  ISSUED:          0  USEFUL:          0  USELESS:          0
DTLB USEFUL LOAD PREFETCHES:          0 PREFETCH ISSUED TO LOWER LEVEL:          0  ACCURACY: -nan
DTLB TIMELY PREFETCHES:          0 LATE PREFETCHES: 0 DROPPED PREFETCHES: 0
DTLB PREFETCHES SAME FILL-ORIGIN LEVEL: 0 DIFFERENT FILL-ORIGIN LEVEL: 0
DTLB AVERAGE MISS LATENCY: 119.831 cycles
DTLB RQ	ACCESS:   18634513	FORWARD:          0	MERGED:     524071	TO_CACHE:   18110442

STLB TOTAL     ACCESS:   11280094  HIT:   11272781  MISS:       7313  HIT %:    99.9352  MISS %:   0.064831   MPKI: 0.036565
STLB LOAD TRANSLATION ACCESS:       7313  HIT:          0  MISS:       7313  HIT %:          0  MISS %:        100   MPKI: 0.036565
STLB TRANSLATION FROM L1D PREFETCHER ACCESS:   11272781  HIT:   11272781  MISS:          0  HIT %:        100  MISS %:          0   MPKI: 0
STLB PREFETCH  REQUESTED:          0  ISSUED:          0  USEFUL:          0  USELESS:          0
STLB USEFUL LOAD PREFETCHES:          0 PREFETCH ISSUED TO LOWER LEVEL:          0  ACCURACY: -nan
STLB TIMELY PREFETCHES:          0 LATE PREFETCHES: 1538 DROPPED PREFETCHES: 1044697
STLB PREFETCHES SAME FILL-ORIGIN LEVEL: 0 DIFFERENT FILL-ORIGIN LEVEL: 0
STLB AVERAGE MISS LATENCY: 108.452 cycles
STLB RQ	ACCESS:   66684541	FORWARD:          0	MERGED:   54290013	TO_CACHE:   12394528

STLB Hit, L1D data hit: 0
STLB Hit, L2C data hit: 0
STLB Hit, LLC data hit: 0
STLB Hit, LLC data miss: 0
STLB STLB hints to L2: 0
L1D TOTAL     ACCESS:   76815230  HIT:   76347277  MISS:     467953  HIT %:    99.3908  MISS %:   0.609193   MPKI: 2.33976
L1D LOAD      ACCESS:   14529946  HIT:   14522569  MISS:       7377  HIT %:    99.9492  MISS %:   0.050771   MPKI: 0.036885
L1D RFO       ACCESS:    4061664  HIT:    4061664  MISS:          0  HIT %:        100  MISS %:          0   MPKI: 0
L1D PREFETCH  ACCESS:   58223620  HIT:   57763044  MISS:     460576  HIT %:     99.209  MISS %:   0.791047   MPKI: 2.30288
L1D PREFETCH  REQUESTED:  179187945  ISSUED:  179187945  USEFUL:     460603  USELESS:          0
L1D USEFUL LOAD PREFETCHES:     460603 PREFETCH ISSUED TO LOWER LEVEL:    2476774  ACCURACY: 18.5969
L1D TIMELY PREFETCHES:     460603 LATE PREFETCHES: 4035 DROPPED PREFETCHES: 2983454
L1D PREFETCHES SAME FILL-ORIGIN LEVEL: 464653 DIFFERENT FILL-ORIGIN LEVEL: 2012121
L1D AVERAGE MISS LATENCY: 183.095 cycles
L1D RQ	ACCESS:   29950628	FORWARD:          0	MERGED:   15378057	TO_CACHE:   14572571
L1D WQ	ACCESS:    4061942	FORWARD:          0	MERGED:          0	TO_CACHE:    4061942
L1D PQ	ACCESS:  112510717	FORWARD:          0	MERGED:   45833489	TO_CACHE:   66677228

L1D UNIQUE REGIONS ACCESSED: 0
L1D REGIONS CONFLICTS: 0
L1D Cross Page Prefetch Requests: 14872922
L1D Same Page Prefetch Requests: 155537675
L1D ROI Sum of L1D PQ occupancy: 870687121
L1D PREFETCHES PUSHED FROM L2C: 0
L1I TOTAL     ACCESS:   33211528  HIT:   33211528  MISS:          0  HIT %:        100  MISS %:          0   MPKI: 0
L1I LOAD      ACCESS:   33211528  HIT:   33211528  MISS:          0  HIT %:        100  MISS %:          0   MPKI: 0
L1I PREFETCH  REQUESTED:          0  ISSUED:          0  USEFUL:          0  USELESS:          0
L1I USEFUL LOAD PREFETCHES:          0 PREFETCH ISSUED TO LOWER LEVEL:          0  ACCURACY: -nan
L1I TIMELY PREFETCHES:          0 LATE PREFETCHES: 0 DROPPED PREFETCHES: 0
L1I PREFETCHES SAME FILL-ORIGIN LEVEL: 0 DIFFERENT FILL-ORIGIN LEVEL: 0
L1I AVERAGE MISS LATENCY: -nan cycles
L1I RQ	ACCESS:   80324981	FORWARD:          0	MERGED:   47111267	TO_CACHE:   33213714

BTB TOTAL     ACCESS:   59897334  HIT:   59897333  MISS:          1  HIT %:        100  MISS %: 1.66952e-06   MPKI: 5e-06
BTB BRANCH_DIRECT_JUMP	ACCESS:          0  HIT:          0  MISS:          0
BTB BRANCH_INDIRECT	ACCESS:          0  HIT:          0  MISS:          0
BTB BRANCH_CONDITIONAL	ACCESS:   59897334  HIT:   59897333  MISS:          1
BTB BRANCH_DIRECT_CALL	ACCESS:          0  HIT:          0  MISS:          0
BTB BRANCH_INDIRECT_CALL	ACCESS:          0  HIT:          0  MISS:          0
BTB BRANCH_RETURN	ACCESS:          0  HIT:          0  MISS:          0
BTB BRANCH_OTHER ACCESS:          0  HIT:          0  MISS:          0

L2C TOTAL     ACCESS:    3110064  HIT:    2434435  MISS:     675629  HIT %:     78.276  MISS %:     21.724   MPKI: 3.37814
L2C LOAD      ACCESS:       3342  HIT:          0  MISS:       3342  HIT %:          0  MISS %:        100   MPKI: 0.01671
L2C DATA LOAD MPKI: 0.01671
L2C INSTRUCTION LOAD MPKI: 0
L2C PREFETCH  ACCESS:    1585222  HIT:    1120611  MISS:     464611  HIT %:    70.6911  MISS %:    29.3089   MPKI: 2.32305
L2C DATA PREFETCH MPKI: 2.32305
L2C INSTRUCTION PREFETCH MPKI: 0
L2C WRITEBACK ACCESS:     467952  HIT:     261206  MISS:     206746  HIT %:     55.819  MISS %:     44.181   MPKI: 1.03373
L2C LOAD TRANSLATION ACCESS:       7313  HIT:       7312  MISS:          1  HIT %:    99.9863  MISS %:  0.0136743   MPKI: 5e-06
L2C TRANSLATION FROM L1D PREFETCHER ACCESS:    1046235  HIT:    1045306  MISS:        929  HIT %:    99.9112  MISS %:  0.0887946   MPKI: 0.004645
L2C PREFETCH  REQUESTED:          0  ISSUED:          0  USEFUL:        929  USELESS:     464634
L2C USEFUL LOAD PREFETCHES:        929 PREFETCH ISSUED TO LOWER LEVEL:     464653  ACCURACY: 0.199934
L2C TIMELY PREFETCHES:        929 LATE PREFETCHES: 0 DROPPED PREFETCHES: 0
L2C PREFETCHES SAME FILL-ORIGIN LEVEL: 94075 DIFFERENT FILL-ORIGIN LEVEL: 0
L2C AVERAGE MISS LATENCY: 148.187 cycles
L2C RQ	ACCESS:    1056890	FORWARD:          0	MERGED:          0	TO_CACHE:    1056890
L2C WQ	ACCESS:     467992	FORWARD:          0	MERGED:          0	TO_CACHE:     467992
L2C PQ	ACCESS:    2476774	FORWARD:          0	MERGED:        601	TO_CACHE:    2476173

L2C Instructions Evicting Data 0
L2C Translations Evicting Data 930
L2C Data Evicting Data 467236
L2C Instructions Evicting Instructions 0
L2C Translations Evicting Instructions 0
L2C Data Evicting Instructions 0
L2C Instructions Evicting Translations 0
L2C Translations Evicting Translations 0
L2C Data Evicting Translations 756
L2C Dense regions hint from L2: 0
PSCL5 TOTAL     ACCESS:    1053548  HIT:    1053548  MISS:          0  HIT %:        100  MISS %:          0   MPKI: 0
PSCL5 LOAD TRANSLATION ACCESS:       7313  HIT:       7313  MISS:          0  HIT %:        100  MISS %:          0   MPKI: 0
PSCL5 TRANSLATION FROM L1D PREFETCHER ACCESS:    1046235  HIT:    1046235  MISS:          0  HIT %:        100  MISS %:          0   MPKI: 0
PSCL5 PREFETCH  REQUESTED:          0  ISSUED:          0  USEFUL:          0  USELESS:          0
PSCL5 USEFUL LOAD PREFETCHES:          0 PREFETCH ISSUED TO LOWER LEVEL:          0  ACCURACY: -nan
PSCL5 TIMELY PREFETCHES:          0 LATE PREFETCHES: 0 DROPPED PREFETCHES: 0
PSCL5 PREFETCHES SAME FILL-ORIGIN LEVEL: 0 DIFFERENT FILL-ORIGIN LEVEL: 0

PSCL4 TOTAL     ACCESS:    1053548  HIT:    1053548  MISS:          0  HIT %:        100  MISS %:          0   MPKI: 0
PSCL4 LOAD TRANSLATION ACCESS:       7313  HIT:       7313  MISS:          0  HIT %:        100  MISS %:          0   MPKI: 0
PSCL4 TRANSLATION FROM L1D PREFETCHER ACCESS:    1046235  HIT:    1046235  MISS:          0  HIT %:        100  MISS %:          0   MPKI: 0
PSCL4 PREFETCH  REQUESTED:          0  ISSUED:          0  USEFUL:          0  USELESS:          0
PSCL4 USEFUL LOAD PREFETCHES:          0 PREFETCH ISSUED TO LOWER LEVEL:          0  ACCURACY: -nan
PSCL4 TIMELY PREFETCHES:          0 LATE PREFETCHES: 0 DROPPED PREFETCHES: 0
PSCL4 PREFETCHES SAME FILL-ORIGIN LEVEL: 0 DIFFERENT FILL-ORIGIN LEVEL: 0

PSCL3 TOTAL     ACCESS:    1053548  HIT:    1053548  MISS:          0  HIT %:        100  MISS %:          0   MPKI: 0
PSCL3 LOAD TRANSLATION ACCESS:       7313  HIT:       7313  MISS:          0  HIT %:        100  MISS %:          0   MPKI: 0
PSCL3 TRANSLATION FROM L1D PREFETCHER ACCESS:    1046235  HIT:    1046235  MISS:          0  HIT %:        100  MISS %:          0   MPKI: 0
PSCL3 PREFETCH  REQUESTED:          0  ISSUED:          0  USEFUL:          0  USELESS:          0
PSCL3 USEFUL LOAD PREFETCHES:          0 PREFETCH ISSUED TO LOWER LEVEL:          0  ACCURACY: -nan
PSCL3 TIMELY PREFETCHES:          0 LATE PREFETCHES: 0 DROPPED PREFETCHES: 0
PSCL3 PREFETCHES SAME FILL-ORIGIN LEVEL: 0 DIFFERENT FILL-ORIGIN LEVEL: 0

PSCL2 TOTAL     ACCESS:    1051556  HIT:    1051541  MISS:         15  HIT %:    99.9986  MISS %: 0.00142646   MPKI: 7.5e-05
PSCL2 LOAD TRANSLATION ACCESS:       7313  HIT:       7298  MISS:         15  HIT %:    99.7949  MISS %:   0.205114   MPKI: 7.5e-05
PSCL2 TRANSLATION FROM L1D PREFETCHER ACCESS:    1044243  HIT:    1044243  MISS:          0  HIT %:        100  MISS %:          0   MPKI: 0
PSCL2 PREFETCH  REQUESTED:          0  ISSUED:          0  USEFUL:          0  USELESS:          0
PSCL2 USEFUL LOAD PREFETCHES:          0 PREFETCH ISSUED TO LOWER LEVEL:          0  ACCURACY: -nan
PSCL2 TIMELY PREFETCHES:          0 LATE PREFETCHES: 0 DROPPED PREFETCHES: 0
PSCL2 PREFETCHES SAME FILL-ORIGIN LEVEL: 0 DIFFERENT FILL-ORIGIN LEVEL: 0

LLC TOTAL     ACCESS:     936765  HIT:     421139  MISS:     515626  HIT %:    44.9567  MISS %:    55.0433   MPKI: 2.57813
LLC LOAD      ACCESS:       3342  HIT:          0  MISS:       3342  HIT %:          0  MISS %:        100   MPKI: 0.01671
LLC PREFETCH  ACCESS:     464614  HIT:          0  MISS:     464614  HIT %:          0  MISS %:        100   MPKI: 2.32307
LLC WRITEBACK ACCESS:     467879  HIT:     421137  MISS:      46742  HIT %:    90.0098  MISS %:    9.99019   MPKI: 0.23371
LLC LOAD TRANSLATION ACCESS:          1  HIT:          0  MISS:          1  HIT %:          0  MISS %:        100   MPKI: 5e-06
LLC TRANSLATION FROM L1D PREFETCHER ACCESS:        929  HIT:          2  MISS:        927  HIT %:   0.215285  MISS %:    99.7847   MPKI: 0.004635
LLC PREFETCH  REQUESTED:          0  ISSUED:          0  USEFUL:          2  USELESS:    1865351
LLC USEFUL LOAD PREFETCHES:          2 PREFETCH ISSUED TO LOWER LEVEL:    1858560  ACCURACY: 0.00010761
LLC TIMELY PREFETCHES:          2 LATE PREFETCHES: 0 DROPPED PREFETCHES: 0
LLC PREFETCHES SAME FILL-ORIGIN LEVEL: 0 DIFFERENT FILL-ORIGIN LEVEL: 0
LLC AVERAGE MISS LATENCY: 672.665 cycles
LLC RQ	ACCESS:      17081	FORWARD:          0	MERGED:          0	TO_CACHE:      17081
LLC WQ	ACCESS:    1871888	FORWARD:          0	MERGED:          0	TO_CACHE:    1871888
LLC PQ	ACCESS:    1858562	FORWARD:          0	MERGED:          0	TO_CACHE:    1858562

LLC Dense regions hint to LLC: 0

RAW hits: 0
Loads Generated: 29948631
Loads sent to L1D: 29948630
Stores Generated: 4061667
Stores sent to L1D: 4061664
Major fault: 0 Minor fault: 9164
Allocated PAGES: 36656

CPU 2 cumulative IPC: 1.16451 instructions: 200000002 cycles: 171745828
ITLB TOTAL     ACCESS:   33211436  HIT:   33211436  MISS:          0  HIT %:        100  MISS %:          0   MPKI: 0
ITLB LOAD TRANSLATION ACCESS:   33211436  HIT:   33211436  MISS:          0  HIT %:        100  MISS %:          0   MPKI: 0
ITLB PREFETCH  REQUESTED:          0  ISSUED:          0  USEFUL:          0  USELESS:          0
ITLB USEFUL LOAD PREFETCHES:          0 PREFETCH ISSUED TO LOWER LEVEL:          0  ACCURACY: -nan
ITLB TIMELY PREFETCHES:          0 LATE PREFETCHES: 0 DROPPED PREFETCHES: 0
ITLB PREFETCHES SAME FILL-ORIGIN LEVEL: 0 DIFFERENT FILL-ORIGIN LEVEL: 0
ITLB AVERAGE MISS LATENCY: -nan cycles
ITLB RQ	ACCESS:   33212509	FORWARD:          0	MERGED:          0	TO_CACHE:   33212509

DTLB TOTAL     ACCESS:   18108036  HIT:   18100724  MISS:       7312  HIT %:    99.9596  MISS %:  0.0403799   MPKI: 0.03656
DTLB LOAD TRANSLATION ACCESS:   18108036  HIT:   18100724  MISS:       7312  HIT %:    99.9596  MISS %:  0.0403799   MPKI: 0.03656
DTLB PREFETCH  REQUESTED:          0  ISSUED:          0  USEFUL:          0  USELESS:          0
DTLB USEFUL LOAD PREFETCHES:          0 PREFETCH ISSUED TO LOWER LEVEL:          0  ACCURACY: -nan
DTLB TIMELY PREFETCHES:          0 LATE PREFETCHES: 0 DROPPED PREFETCHES: 0
DTLB PREFETCHES SAME FILL-ORIGIN LEVEL: 0 DIFFERENT FILL-ORIGIN LEVEL: 0
DTLB AVERAGE MISS LATENCY: 119.847 cycles
DTLB RQ	ACCESS:   18632763	FORWARD:          0	MERGED:     524189	TO_CACHE:   18108574

STLB TOTAL     ACCESS:   11279545  HIT:   11272233  MISS:       7312  HIT %:    99.9352  MISS %:  0.0648253   MPKI: 0.03656
STLB LOAD TRANSLATION ACCESS:       7312  HIT:          0  MISS:       7312  HIT %:          0  MISS %:        100   MPKI: 0.03656
STLB TRANSLATION FROM L1D PREFETCHER ACCESS:   11272233  HIT:   11272233  MISS:          0  HIT %:        100  MISS %:          0   MPKI: 0
STLB PREFETCH  REQUESTED:          0  ISSUED:          0  USEFUL:          0  USELESS:          0
STLB USEFUL LOAD PREFETCHES:          0 PREFETCH ISSUED TO LOWER LEVEL:          0  ACCURACY: -nan
STLB TIMELY PREFETCHES:          0 LATE PREFETCHES: 1539 DROPPED PREFETCHES: 1044638
STLB PREFETCHES SAME FILL-ORIGIN LEVEL: 0 DIFFERENT FILL-ORIGIN LEVEL: 0
STLB AVERAGE MISS LATENCY: 108.468 cycles
STLB RQ	ACCESS:   66685598	FORWARD:          0	MERGED:   54292099	TO_CACHE:   12393499

STLB Hit, L1D data hit: 0
STLB Hit, L2C data hit: 0
STLB Hit, LLC data hit: 0
STLB Hit, LLC data miss: 0
STLB STLB hints to L2: 0
L1D TOTAL     ACCESS:   76820853  HIT:   76352902  MISS:     467951  HIT %:    99.3909  MISS %:   0.609146   MPKI: 2.33975
L1D LOAD      ACCESS:   14528826  HIT:   14521452  MISS:       7374  HIT %:    99.9492  MISS %:  0.0507543   MPKI: 0.03687
L1D RFO       ACCESS:    4061665  HIT:    4061665  MISS:          0  HIT %:        100  MISS %:          0   MPKI: 0
L1D PREFETCH  ACCESS:   58230362  HIT:   57769785  MISS:     460577  HIT %:     99.209  MISS %:   0.790957   MPKI: 2.30288
L1D PREFETCH  REQUESTED:  179187796  ISSUED:  179187628  USEFUL:     460588  USELESS:          0
L1D USEFUL LOAD PREFETCHES:     460588 PREFETCH ISSUED TO LOWER LEVEL:    2439706  ACCURACY: 18.8788
L1D TIMELY PREFETCHES:     460588 LATE PREFETCHES: 4034 DROPPED PREFETCHES: 2983732
L1D PREFETCHES SAME FILL-ORIGIN LEVEL: 464631 DIFFERENT FILL-ORIGIN LEVEL: 1975075
L1D AVERAGE MISS LATENCY: 184.78 cycles
L1D RQ	ACCESS:   29949571	FORWARD:          0	MERGED:   15378606	TO_CACHE:   14570965
L1D WQ	ACCESS:    4061798	FORWARD:          0	MERGED:          0	TO_CACHE:    4061798
L1D PQ	ACCESS:  112509343	FORWARD:          0	MERGED:   45831058	TO_CACHE:   66678285

L1D UNIQUE REGIONS ACCESSED: 0
L1D REGIONS CONFLICTS: 0
L1D Cross Page Prefetch Requests: 14870838
L1D Same Page Prefetch Requests: 155347952
L1D ROI Sum of L1D PQ occupancy: 870652349
L1D PREFETCHES PUSHED FROM L2C: 0
L1I TOTAL     ACCESS:   33211436  HIT:   33211436  MISS:          0  HIT %:        100  MISS %:          0   MPKI: 0
L1I LOAD      ACCESS:   33211436  HIT:   33211436  MISS:          0  HIT %:        100  MISS %:          0   MPKI: 0
L1I PREFETCH  REQUESTED:          0  ISSUED:          0  USEFUL:          0  USELESS:          0
L1I USEFUL LOAD PREFETCHES:          0 PREFETCH ISSUED TO LOWER LEVEL:          0  ACCURACY: -nan
L1I TIMELY PREFETCHES:          0 LATE PREFETCHES: 0 DROPPED PREFETCHES: 0
L1I PREFETCHES SAME FILL-ORIGIN LEVEL: 0 DIFFERENT FILL-ORIGIN LEVEL: 0
L1I AVERAGE MISS LATENCY: -nan cycles
L1I RQ	ACCESS:   80322049	FORWARD:          0	MERGED:   47109540	TO_CACHE:   33212509

BTB TOTAL     ACCESS:   59897223  HIT:   59897222  MISS:          1  HIT %:        100  MISS %: 1.66953e-06   MPKI: 5e-06
BTB BRANCH_DIRECT_JUMP	ACCESS:          0  HIT:          0  MISS:          0
BTB BRANCH_INDIRECT	ACCESS:          0  HIT:          0  MISS:          0
BTB BRANCH_CONDITIONAL	ACCESS:   59897223  HIT:   59897222  MISS:          1
BTB BRANCH_DIRECT_CALL	ACCESS:          0  HIT:          0  MISS:          0
BTB BRANCH_INDIRECT_CALL	ACCESS:          0  HIT:          0  MISS:          0
BTB BRANCH_RETURN	ACCESS:          0  HIT:          0  MISS:          0
BTB BRANCH_OTHER ACCESS:          0  HIT:          0  MISS:          0

L2C TOTAL     ACCESS:    3065710  HIT:    2388427  MISS:     677283  HIT %:    77.9078  MISS %:    22.0922   MPKI: 3.38641
L2C LOAD      ACCESS:       3340  HIT:          0  MISS:       3340  HIT %:          0  MISS %:        100   MPKI: 0.0167
L2C DATA LOAD MPKI: 0.0167
L2C INSTRUCTION LOAD MPKI: 0
L2C PREFETCH  ACCESS:    1540930  HIT:    1076328  MISS:     464602  HIT %:    69.8492  MISS %:    30.1508   MPKI: 2.32301
L2C DATA PREFETCH MPKI: 2.32301
L2C INSTRUCTION PREFETCH MPKI: 0
L2C WRITEBACK ACCESS:     467951  HIT:     259538  MISS:     208413  HIT %:    55.4626  MISS %:    44.5374   MPKI: 1.04206
L2C LOAD TRANSLATION ACCESS:       7312  HIT:       7312  MISS:          0  HIT %:        100  MISS %:          0   MPKI: 0
L2C TRANSLATION FROM L1D PREFETCHER ACCESS:    1046177  HIT:    1045249  MISS:        928  HIT %:    99.9113  MISS %:  0.0887039   MPKI: 0.00464
L2C PREFETCH  REQUESTED:          0  ISSUED:          0  USEFUL:        928  USELESS:     464784
L2C USEFUL LOAD PREFETCHES:        928 PREFETCH ISSUED TO LOWER LEVEL:     464635  ACCURACY: 0.199727
L2C TIMELY PREFETCHES:        928 LATE PREFETCHES: 0 DROPPED PREFETCHES: 0
L2C PREFETCHES SAME FILL-ORIGIN LEVEL: 93659 DIFFERENT FILL-ORIGIN LEVEL: 0
L2C AVERAGE MISS LATENCY: 149.327 cycles
L2C RQ	ACCESS:    1056831	FORWARD:          0	MERGED:          0	TO_CACHE:    1056831
L2C WQ	ACCESS:     467972	FORWARD:          0	MERGED:          0	TO_CACHE:     467972
L2C PQ	ACCESS:    2439706	FORWARD:          0	MERGED:        492	TO_CACHE:    2439214

L2C Instructions Evicting Data 0
L2C Translations Evicting Data 929
L2C Data Evicting Data 467170
L2C Instructions Evicting Instructions 0
L2C Translations Evicting Instructions 0
L2C Data Evicting Instructions 0
L2C Instructions Evicting Translations 0
L2C Translations Evicting Translations 0
L2C Data Evicting Translations 805
L2C Dense regions hint from L2: 0
PSCL5 TOTAL     ACCESS:    1053490  HIT:    1053490  MISS:          0  HIT %:        100  MISS %:          0   MPKI: 0
PSCL5 LOAD TRANSLATION ACCESS:       7313  HIT:       7313  MISS:          0  HIT %:        100  MISS %:          0   MPKI: 0
PSCL5 TRANSLATION FROM L1D PREFETCHER ACCESS:    1046177  HIT:    1046177  MISS:          0  HIT %:        100  MISS %:          0   MPKI: 0
PSCL5 PREFETCH  REQUESTED:          0  ISSUED:          0  USEFUL:          0  USELESS:          0
PSCL5 USEFUL LOAD PREFETCHES:          0 PREFETCH ISSUED TO LOWER LEVEL:          0  ACCURACY: -nan
PSCL5 TIMELY PREFETCHES:          0 LATE PREFETCHES: 0 DROPPED PREFETCHES: 0
PSCL5 PREFETCHES SAME FILL-ORIGIN LEVEL: 0 DIFFERENT FILL-ORIGIN LEVEL: 0

PSCL4 TOTAL     ACCESS:    1053490  HIT:    1053490  MISS:          0  HIT %:        100  MISS %:          0   MPKI: 0
PSCL4 LOAD TRANSLATION ACCESS:       7313  HIT:       7313  MISS:          0  HIT %:        100  MISS %:          0   MPKI: 0
PSCL4 TRANSLATION FROM L1D PREFETCHER ACCESS:    1046177  HIT:    1046177  MISS:          0  HIT %:        100  MISS %:          0   MPKI: 0
PSCL4 PREFETCH  REQUESTED:          0  ISSUED:          0  USEFUL:          0  USELESS:          0
PSCL4 USEFUL LOAD PREFETCHES:          0 PREFETCH ISSUED TO LOWER LEVEL:          0  ACCURACY: -nan
PSCL4 TIMELY PREFETCHES:          0 LATE PREFETCHES: 0 DROPPED PREFETCHES: 0
PSCL4 PREFETCHES SAME FILL-ORIGIN LEVEL: 0 DIFFERENT FILL-ORIGIN LEVEL: 0

PSCL3 TOTAL     ACCESS:    1053490  HIT:    1053490  MISS:          0  HIT %:        100  MISS %:          0   MPKI: 0
PSCL3 LOAD TRANSLATION ACCESS:       7313  HIT:       7313  MISS:          0  HIT %:        100  MISS %:          0   MPKI: 0
PSCL3 TRANSLATION FROM L1D PREFETCHER ACCESS:    1046177  HIT:    1046177  MISS:          0  HIT %:        100  MISS %:          0   MPKI: 0
PSCL3 PREFETCH  REQUESTED:          0  ISSUED:          0  USEFUL:          0  USELESS:          0
PSCL3 USEFUL LOAD PREFETCHES:          0 PREFETCH ISSUED TO LOWER LEVEL:          0  ACCURACY: -nan
PSCL3 TIMELY PREFETCHES:          0 LATE PREFETCHES: 0 DROPPED PREFETCHES: 0
PSCL3 PREFETCHES SAME FILL-ORIGIN LEVEL: 0 DIFFERENT FILL-ORIGIN LEVEL: 0

PSCL2 TOTAL     ACCESS:    1051602  HIT:    1051587  MISS:         15  HIT %:    99.9986  MISS %:  0.0014264   MPKI: 7.5e-05
PSCL2 LOAD TRANSLATION ACCESS:       7313  HIT:       7298  MISS:         15  HIT %:    99.7949  MISS %:   0.205114   MPKI: 7.5e-05
PSCL2 TRANSLATION FROM L1D PREFETCHER ACCESS:    1044289  HIT:    1044289  MISS:          0  HIT %:        100  MISS %:          0   MPKI: 0
PSCL2 PREFETCH  REQUESTED:          0  ISSUED:          0  USEFUL:          0  USELESS:          0
PSCL2 USEFUL LOAD PREFETCHES:          0 PREFETCH ISSUED TO LOWER LEVEL:          0  ACCURACY: -nan
PSCL2 TIMELY PREFETCHES:          0 LATE PREFETCHES: 0 DROPPED PREFETCHES: 0
PSCL2 PREFETCHES SAME FILL-ORIGIN LEVEL: 0 DIFFERENT FILL-ORIGIN LEVEL: 0

LLC TOTAL     ACCESS:     936810  HIT:     421142  MISS:     515668  HIT %:    44.9549  MISS %:    55.0451   MPKI: 2.57834
LLC LOAD      ACCESS:       3340  HIT:          0  MISS:       3340  HIT %:          0  MISS %:        100   MPKI: 0.0167
LLC PREFETCH  ACCESS:     464602  HIT:          0  MISS:     464602  HIT %:          0  MISS %:        100   MPKI: 2.32301
LLC WRITEBACK ACCESS:     467940  HIT:     421142  MISS:      46798  HIT %:    89.9991  MISS %:    10.0009   MPKI: 0.23399
LLC TRANSLATION FROM L1D PREFETCHER ACCESS:        928  HIT:          0  MISS:        928  HIT %:          0  MISS %:        100   MPKI: 0.00464
LLC PREFETCH  REQUESTED:          0  ISSUED:          0  USEFUL:          2  USELESS:    1865351
LLC USEFUL LOAD PREFETCHES:          2 PREFETCH ISSUED TO LOWER LEVEL:    1858560  ACCURACY: 0.00010761
LLC TIMELY PREFETCHES:          2 LATE PREFETCHES: 0 DROPPED PREFETCHES: 0
LLC PREFETCHES SAME FILL-ORIGIN LEVEL: 0 DIFFERENT FILL-ORIGIN LEVEL: 0
LLC AVERAGE MISS LATENCY: 672.61 cycles
LLC RQ	ACCESS:      17081	FORWARD:          0	MERGED:          0	TO_CACHE:      17081
LLC WQ	ACCESS:    1871888	FORWARD:          0	MERGED:          0	TO_CACHE:    1871888
LLC PQ	ACCESS:    1858562	FORWARD:          0	MERGED:          0	TO_CACHE:    1858562

LLC Dense regions hint to LLC: 0

RAW hits: 0
Loads Generated: 29948614
Loads sent to L1D: 29948613
Stores Generated: 4061664
Stores sent to L1D: 4061664
Major fault: 0 Minor fault: 9164
Allocated PAGES: 36656

CPU 3 cumulative IPC: 1.16447 instructions: 200000003 cycles: 171751350
ITLB TOTAL     ACCESS:   33211455  HIT:   33211455  MISS:          0  HIT %:        100  MISS %:          0   MPKI: 0
ITLB LOAD TRANSLATION ACCESS:   33211455  HIT:   33211455  MISS:          0  HIT %:        100  MISS %:          0   MPKI: 0
ITLB PREFETCH  REQUESTED:          0  ISSUED:          0  USEFUL:          0  USELESS:          0
ITLB USEFUL LOAD PREFETCHES:          0 PREFETCH ISSUED TO LOWER LEVEL:          0  ACCURACY: -nan
ITLB TIMELY PREFETCHES:          0 LATE PREFETCHES: 0 DROPPED PREFETCHES: 0
ITLB PREFETCHES SAME FILL-ORIGIN LEVEL: 0 DIFFERENT FILL-ORIGIN LEVEL: 0
ITLB AVERAGE MISS LATENCY: -nan cycles
ITLB RQ	ACCESS:   33211454	FORWARD:          0	MERGED:          0	TO_CACHE:   33211454

DTLB TOTAL     ACCESS:   18108860  HIT:   18101548  MISS:       7312  HIT %:    99.9596  MISS %:   0.040378   MPKI: 0.03656
DTLB LOAD TRANSLATION ACCESS:   18108860  HIT:   18101548  MISS:       7312  HIT %:    99.9596  MISS %:   0.040378   MPKI: 0.03656
DTLB PREFETCH  REQUESTED:          0  ISSUED:          0  USEFUL:          0  USELESS:          0
DTLB USEFUL LOAD PREFETCHES:          0 PREFETCH ISSUED TO LOWER LEVEL:          0  ACCURACY: -nan
DTLB TIMELY PREFETCHES:          0 LATE PREFETCHES: 0 DROPPED PREFETCHES: 0
DTLB PREFETCHES SAME FILL-ORIGIN LEVEL: 0 DIFFERENT FILL-ORIGIN LEVEL: 0
DTLB AVERAGE MISS LATENCY: 119.814 cycles
DTLB RQ	ACCESS:   18632793	FORWARD:          0	MERGED:     523932	TO_CACHE:   18108861

STLB TOTAL     ACCESS:   11279463  HIT:   11272151  MISS:       7312  HIT %:    99.9352  MISS %:  0.0648258   MPKI: 0.03656
STLB LOAD TRANSLATION ACCESS:       7312  HIT:          0  MISS:       7312  HIT %:          0  MISS %:        100   MPKI: 0.03656
STLB TRANSLATION FROM L1D PREFETCHER ACCESS:   11272151  HIT:   11272151  MISS:          0  HIT %:        100  MISS %:          0   MPKI: 0
STLB PREFETCH  REQUESTED:          0  ISSUED:          0  USEFUL:          0  USELESS:          0
STLB USEFUL LOAD PREFETCHES:          0 PREFETCH ISSUED TO LOWER LEVEL:          0  ACCURACY: -nan
STLB TIMELY PREFETCHES:          0 LATE PREFETCHES: 1537 DROPPED PREFETCHES: 1044074
STLB PREFETCHES SAME FILL-ORIGIN LEVEL: 0 DIFFERENT FILL-ORIGIN LEVEL: 0
STLB AVERAGE MISS LATENCY: 108.452 cycles
STLB RQ	ACCESS:   66693925	FORWARD:          0	MERGED:   54301403	TO_CACHE:   12392522

STLB Hit, L1D data hit: 0
STLB Hit, L2C data hit: 0
STLB Hit, LLC data hit: 0
STLB Hit, LLC data miss: 0
STLB STLB hints to L2: 0
L1D TOTAL     ACCESS:   76825764  HIT:   76357812  MISS:     467952  HIT %:    99.3909  MISS %:   0.609108   MPKI: 2.33976
L1D LOAD      ACCESS:   14529375  HIT:   14521992  MISS:       7383  HIT %:    99.9492  MISS %:  0.0508143   MPKI: 0.036915
L1D RFO       ACCESS:    4061665  HIT:    4061665  MISS:          0  HIT %:        100  MISS %:          0   MPKI: 0
L1D PREFETCH  ACCESS:   58234724  HIT:   57774155  MISS:     460569  HIT %:    99.2091  MISS %:   0.790884   MPKI: 2.30284
L1D PREFETCH  REQUESTED:  179216363  ISSUED:  179216363  USEFUL:     460564  USELESS:          0
L1D USEFUL LOAD PREFETCHES:     460564 PREFETCH ISSUED TO LOWER LEVEL:    2470325  ACCURACY: 18.6439
L1D TIMELY PREFETCHES:     460564 LATE PREFETCHES: 4042 DROPPED PREFETCHES: 2983820
L1D PREFETCHES SAME FILL-ORIGIN LEVEL: 464612 DIFFERENT FILL-ORIGIN LEVEL: 2005713
L1D AVERAGE MISS LATENCY: 183.531 cycles
L1D RQ	ACCESS:   29948614	FORWARD:          0	MERGED:   15377486	TO_CACHE:   14571128
L1D WQ	ACCESS:    4061665	FORWARD:          0	MERGED:          0	TO_CACHE:    4061665
L1D PQ	ACCESS:  112529751	FORWARD:          0	MERGED:   45843139	TO_CACHE:   66686612

L1D UNIQUE REGIONS ACCESSED: 0
L1D REGIONS CONFLICTS: 0
L1D Cross Page Prefetch Requests: 14874890
L1D Same Page Prefetch Requests: 155362646
L1D ROI Sum of L1D PQ occupancy: 870858702
L1D PREFETCHES PUSHED FROM L2C: 0
L1I TOTAL     ACCESS:   33211455  HIT:   33211455  MISS:          0  HIT %:        100  MISS %:          0   MPKI: 0
L1I LOAD      ACCESS:   33211455  HIT:   33211455  MISS:          0  HIT %:        100  MISS %:          0   MPKI: 0
L1I PREFETCH  REQUESTED:          0  ISSUED:          0  USEFUL:          0  USELESS:          0
L1I USEFUL LOAD PREFETCHES:          0 PREFETCH ISSUED TO LOWER LEVEL:          0  ACCURACY: -nan
L1I TIMELY PREFETCHES:          0 LATE PREFETCHES: 0 DROPPED PREFETCHES: 0
L1I PREFETCHES SAME FILL-ORIGIN LEVEL: 0 DIFFERENT FILL-ORIGIN LEVEL: 0
L1I AVERAGE MISS LATENCY: -nan cycles
L1I RQ	ACCESS:   80319501	FORWARD:          0	MERGED:   47108047	TO_CACHE:   33211454

BTB TOTAL     ACCESS:   59897224  HIT:   59897222  MISS:          2  HIT %:        100  MISS %: 3.33905e-06   MPKI: 1e-05
BTB BRANCH_DIRECT_JUMP	ACCESS:          0  HIT:          0  MISS:          0
BTB BRANCH_INDIRECT	ACCESS:          0  HIT:          0  MISS:          0
BTB BRANCH_CONDITIONAL	ACCESS:   59897224  HIT:   59897222  MISS:          2
BTB BRANCH_DIRECT_CALL	ACCESS:          0  HIT:          0  MISS:          0
BTB BRANCH_INDIRECT_CALL	ACCESS:          0  HIT:          0  MISS:          0
BTB BRANCH_RETURN	ACCESS:          0  HIT:          0  MISS:          0
BTB BRANCH_OTHER ACCESS:          0  HIT:          0  MISS:          0

L2C TOTAL     ACCESS:    3082733  HIT:    2406102  MISS:     676631  HIT %:    78.0509  MISS %:    21.9491   MPKI: 3.38315
L2C LOAD      ACCESS:       3341  HIT:          0  MISS:       3341  HIT %:          0  MISS %:        100   MPKI: 0.016705
L2C DATA LOAD MPKI: 0.016705
L2C INSTRUCTION LOAD MPKI: 0
L2C PREFETCH  ACCESS:    1558518  HIT:    1093916  MISS:     464602  HIT %:    70.1895  MISS %:    29.8105   MPKI: 2.32301
L2C DATA PREFETCH MPKI: 2.32301
L2C INSTRUCTION PREFETCH MPKI: 0
L2C WRITEBACK ACCESS:     467951  HIT:     260191  MISS:     207760  HIT %:    55.6022  MISS %:    44.3978   MPKI: 1.0388
L2C LOAD TRANSLATION ACCESS:       7312  HIT:       7312  MISS:          0  HIT %:        100  MISS %:          0   MPKI: 0
L2C TRANSLATION FROM L1D PREFETCHER ACCESS:    1045611  HIT:    1044683  MISS:        928  HIT %:    99.9112  MISS %:  0.0887519   MPKI: 0.00464
L2C PREFETCH  REQUESTED:          0  ISSUED:          0  USEFUL:        928  USELESS:     464986
L2C USEFUL LOAD PREFETCHES:        928 PREFETCH ISSUED TO LOWER LEVEL:     464603  ACCURACY: 0.19974
L2C TIMELY PREFETCHES:        928 LATE PREFETCHES: 0 DROPPED PREFETCHES: 0
L2C PREFETCHES SAME FILL-ORIGIN LEVEL: 94682 DIFFERENT FILL-ORIGIN LEVEL: 0
L2C AVERAGE MISS LATENCY: 149.006 cycles
L2C RQ	ACCESS:    1056264	FORWARD:          0	MERGED:          0	TO_CACHE:    1056264
L2C WQ	ACCESS:     467952	FORWARD:          0	MERGED:          0	TO_CACHE:     467952
L2C PQ	ACCESS:    2470325	FORWARD:          0	MERGED:        550	TO_CACHE:    2469775

L2C Instructions Evicting Data 0
L2C Translations Evicting Data 928
L2C Data Evicting Data 467159
L2C Instructions Evicting Instructions 0
L2C Translations Evicting Instructions 0
L2C Data Evicting Instructions 0
L2C Instructions Evicting Translations 0
L2C Translations Evicting Translations 0
L2C Data Evicting Translations 784
L2C Dense regions hint from L2: 0
PSCL5 TOTAL     ACCESS:    1052923  HIT:    1052923  MISS:          0  HIT %:        100  MISS %:          0   MPKI: 0
PSCL5 LOAD TRANSLATION ACCESS:       7312  HIT:       7312  MISS:          0  HIT %:        100  MISS %:          0   MPKI: 0
PSCL5 TRANSLATION FROM L1D PREFETCHER ACCESS:    1045611  HIT:    1045611  MISS:          0  HIT %:        100  MISS %:          0   MPKI: 0
PSCL5 PREFETCH  REQUESTED:          0  ISSUED:          0  USEFUL:          0  USELESS:          0
PSCL5 USEFUL LOAD PREFETCHES:          0 PREFETCH ISSUED TO LOWER LEVEL:          0  ACCURACY: -nan
PSCL5 TIMELY PREFETCHES:          0 LATE PREFETCHES: 0 DROPPED PREFETCHES: 0
PSCL5 PREFETCHES SAME FILL-ORIGIN LEVEL: 0 DIFFERENT FILL-ORIGIN LEVEL: 0

PSCL4 TOTAL     ACCESS:    1052923  HIT:    1052923  MISS:          0  HIT %:        100  MISS %:          0   MPKI: 0
PSCL4 LOAD TRANSLATION ACCESS:       7312  HIT:       7312  MISS:          0  HIT %:        100  MISS %:          0   MPKI: 0
PSCL4 TRANSLATION FROM L1D PREFETCHER ACCESS:    1045611  HIT:    1045611  MISS:          0  HIT %:        100  MISS %:          0   MPKI: 0
PSCL4 PREFETCH  REQUESTED:          0  ISSUED:          0  USEFUL:          0  USELESS:          0
PSCL4 USEFUL LOAD PREFETCHES:          0 PREFETCH ISSUED TO LOWER LEVEL:          0  ACCURACY: -nan
PSCL4 TIMELY PREFETCHES:          0 LATE PREFETCHES: 0 DROPPED PREFETCHES: 0
PSCL4 PREFETCHES SAME FILL-ORIGIN LEVEL: 0 DIFFERENT FILL-ORIGIN LEVEL: 0

PSCL3 TOTAL     ACCESS:    1052923  HIT:    1052923  MISS:          0  HIT %:        100  MISS %:          0   MPKI: 0
PSCL3 LOAD TRANSLATION ACCESS:       7312  HIT:       7312  MISS:          0  HIT %:        100  MISS %:          0   MPKI: 0
PSCL3 TRANSLATION FROM L1D PREFETCHER ACCESS:    1045611  HIT:    1045611  MISS:          0  HIT %:        100  MISS %:          0   MPKI: 0
PSCL3 PREFETCH  REQUESTED:          0  ISSUED:          0  USEFUL:          0  USELESS:          0
PSCL3 USEFUL LOAD PREFETCHES:          0 PREFETCH ISSUED TO LOWER LEVEL:          0  ACCURACY: -nan
PSCL3 TIMELY PREFETCHES:          0 LATE PREFETCHES: 0 DROPPED PREFETCHES: 0
PSCL3 PREFETCHES SAME FILL-ORIGIN LEVEL: 0 DIFFERENT FILL-ORIGIN LEVEL: 0

PSCL2 TOTAL     ACCESS:    1050850  HIT:    1050835  MISS:         15  HIT %:    99.9986  MISS %: 0.00142742   MPKI: 7.5e-05
PSCL2 LOAD TRANSLATION ACCESS:       7312  HIT:       7297  MISS:         15  HIT %:    99.7949  MISS %:   0.205142   MPKI: 7.5e-05
PSCL2 TRANSLATION FROM L1D PREFETCHER ACCESS:    1043538  HIT:    1043538  MISS:          0  HIT %:        100  MISS %:          0   MPKI: 0
PSCL2 PREFETCH  REQUESTED:          0  ISSUED:          0  USEFUL:          0  USELESS:          0
PSCL2 USEFUL LOAD PREFETCHES:          0 PREFETCH ISSUED TO LOWER LEVEL:          0  ACCURACY: -nan
PSCL2 TIMELY PREFETCHES:          0 LATE PREFETCHES: 0 DROPPED PREFETCHES: 0
PSCL2 PREFETCHES SAME FILL-ORIGIN LEVEL: 0 DIFFERENT FILL-ORIGIN LEVEL: 0

LLC TOTAL     ACCESS:     936877  HIT:     420922  MISS:     515955  HIT %:    44.9282  MISS %:    55.0718   MPKI: 2.57977
LLC LOAD      ACCESS:       3341  HIT:          0  MISS:       3341  HIT %:          0  MISS %:        100   MPKI: 0.016705
LLC PREFETCH  ACCESS:     464602  HIT:          0  MISS:     464602  HIT %:          0  MISS %:        100   MPKI: 2.32301
LLC WRITEBACK ACCESS:     468006  HIT:     420920  MISS:      47086  HIT %:     89.939  MISS %:     10.061   MPKI: 0.23543
LLC TRANSLATION FROM L1D PREFETCHER ACCESS:        928  HIT:          2  MISS:        926  HIT %:   0.215517  MISS %:    99.7845   MPKI: 0.00463
LLC PREFETCH  REQUESTED:          0  ISSUED:          0  USEFUL:          2  USELESS:    1865351
LLC USEFUL LOAD PREFETCHES:          2 PREFETCH ISSUED TO LOWER LEVEL:    1858560  ACCURACY: 0.00010761
LLC TIMELY PREFETCHES:          2 LATE PREFETCHES: 0 DROPPED PREFETCHES: 0
LLC PREFETCHES SAME FILL-ORIGIN LEVEL: 0 DIFFERENT FILL-ORIGIN LEVEL: 0
LLC AVERAGE MISS LATENCY: 672.236 cycles
LLC RQ	ACCESS:      17081	FORWARD:          0	MERGED:          0	TO_CACHE:      17081
LLC WQ	ACCESS:    1871888	FORWARD:          0	MERGED:          0	TO_CACHE:    1871888
LLC PQ	ACCESS:    1858562	FORWARD:          0	MERGED:          0	TO_CACHE:    1858562

LLC Dense regions hint to LLC: 0

RAW hits: 0
Loads Generated: 29948615
Loads sent to L1D: 29948614
Stores Generated: 4061664
Stores sent to L1D: 4061665
Major fault: 0 Minor fault: 9164
Allocated PAGES: 36656

DRAM Statistics
 CHANNEL 0
 RQ ROW_BUFFER_HIT:     375139  ROW_BUFFER_MISS:    1500485
 DBUS_CONGESTED:       3978
 WQ ROW_BUFFER_HIT:    1040342  ROW_BUFFER_MISS:     838306  FULL:      32887

 AVG_CONGESTED_CYCLE: 5
 All warmup complete: 5
Channel 0 Bank busy for read cycles: 0
Channel 0 Bank busy for write cycles: 0
Channel 0
Rank 0
0banks busy for read cycles: 1930263
0banks busy for write cycles: 18715
1banks busy for read cycles: 42946025
1banks busy for write cycles: 2133455
2banks busy for read cycles: 37944554
2banks busy for write cycles: 2292364
3banks busy for read cycles: 18127903
3banks busy for write cycles: 2256386
4banks busy for read cycles: 7314155
4banks busy for write cycles: 2328721
5banks busy for read cycles: 1696554
5banks busy for write cycles: 2530602
6banks busy for read cycles: 686618
6banks busy for write cycles: 3069006
7banks busy for read cycles: 680385
7banks busy for write cycles: 5938292
8banks busy for read cycles: 3217011
8banks busy for write cycles: 36640342

CPU 0 Branch Prediction Accuracy: 99.676% MPKI: 1.03617 Average ROB Occupancy at Mispredict: 28.1305
Branch types
NOT_BRANCH: 136055763 68.0206%
BRANCH_DIRECT_JUMP: 0 0%
BRANCH_INDIRECT: 0 0%
BRANCH_CONDITIONAL: 63965775 31.9794%
BRANCH_DIRECT_CALL: 0 0%
BRANCH_INDIRECT_CALL: 0 0%
BRANCH_RETURN: 0 0%
BRANCH_OTHER: 0 0%


CPU 1 Branch Prediction Accuracy: 99.676% MPKI: 1.03619 Average ROB Occupancy at Mispredict: 28.0928
Branch types
NOT_BRANCH: 136050297 68.0206%
BRANCH_DIRECT_JUMP: 0 0%
BRANCH_INDIRECT: 0 0%
BRANCH_CONDITIONAL: 63963204 31.9794%
BRANCH_DIRECT_CALL: 0 0%
BRANCH_INDIRECT_CALL: 0 0%
BRANCH_RETURN: 0 0%
BRANCH_OTHER: 0 0%


CPU 2 Branch Prediction Accuracy: 99.676% MPKI: 1.03621 Average ROB Occupancy at Mispredict: 28.1374
Branch types
NOT_BRANCH: 136045491 68.0206%
BRANCH_DIRECT_JUMP: 0 0%
BRANCH_INDIRECT: 0 0%
BRANCH_CONDITIONAL: 63960945 31.9794%
BRANCH_DIRECT_CALL: 0 0%
BRANCH_INDIRECT_CALL: 0 0%
BRANCH_RETURN: 0 0%
BRANCH_OTHER: 0 0%


CPU 3 Branch Prediction Accuracy: 99.676% MPKI: 1.03623 Average ROB Occupancy at Mispredict: 28.126
Branch types
NOT_BRANCH: 136041107 68.0206%
BRANCH_DIRECT_JUMP: 0 0%
BRANCH_INDIRECT: 0 0%
BRANCH_CONDITIONAL: 63958888 31.9794%
BRANCH_DIRECT_CALL: 0 0%
BRANCH_INDIRECT_CALL: 0 0%
BRANCH_RETURN: 0 0%
BRANCH_OTHER: 0 0%

DRAM PAGES: 1048576
Allocated PAGES: 36656
