
*** ChampSim Multicore Out-of-Order Simulator ***

Warmup Instructions: 50000000
Simulation Instructions: 200000000
Number of CPUs: 4
LLC sets: 8192
LLC ways: 16
Off-chip DRAM Size: 4096 MB Channels: 1 Width: 64-bit Data Rate: 6400 MT/s
CPU 0 runs ./traces/ligra/ligra_PageRankDelta.com-lj.ungraph.gcc_6.3.0_O3.drop_24000M.length_250M.champsimtrace.xz
.xz
CPU 1 runs ./traces/ligra/ligra_PageRankDelta.com-lj.ungraph.gcc_6.3.0_O3.drop_24000M.length_250M.champsimtrace.xz
.xz
CPU 2 runs ./traces/ligra/ligra_PageRankDelta.com-lj.ungraph.gcc_6.3.0_O3.drop_24000M.length_250M.champsimtrace.xz
.xz
CPU 3 runs ./traces/ligra/ligra_PageRankDelta.com-lj.ungraph.gcc_6.3.0_O3.drop_24000M.length_250M.champsimtrace.xz
.xz
BTB has LRU replacement policy
ITLB has LRU replacement policy
DTLB has LRU replacement policy
STLB has LRU replacement policy
L1I has LRU replacement policy
History Sets: 8
History Ways: 16
BERTI Size: 16
BERTI Stride Size: 8
L1D has LRU replacement policy
Initialize SRRIP state for L2C
Initialize DRRIP state for LLC
BTB has LRU replacement policy
ITLB has LRU replacement policy
DTLB has LRU replacement policy
STLB has LRU replacement policy
L1I has LRU replacement policy
History Sets: 8
History Ways: 16
BERTI Size: 16
BERTI Stride Size: 8
L1D has LRU replacement policy
Initialize SRRIP state for L2C
Initialize DRRIP state for LLC
BTB has LRU replacement policy
ITLB has LRU replacement policy
DTLB has LRU replacement policy
STLB has LRU replacement policy
L1I has LRU replacement policy
History Sets: 8
History Ways: 16
BERTI Size: 16
BERTI Stride Size: 8
L1D has LRU replacement policy
Initialize SRRIP state for L2C
Initialize DRRIP state for LLC
BTB has LRU replacement policy
ITLB has LRU replacement policy
DTLB has LRU replacement policy
STLB has LRU replacement policy
L1I has LRU replacement policy
History Sets: 8
History Ways: 16
BERTI Size: 16
BERTI Stride Size: 8
L1D has LRU replacement policy
Initialize SRRIP state for L2C
Initialize DRRIP state for LLC
Heartbeat CPU 0 instructions: 10000000 cycles: 3332944 heartbeat IPC: 3.00035 cumulative IPC: 3.00035 (Simulation time: 0 hr 1 min 54 sec) 
Heartbeat CPU 1 instructions: 10000000 cycles: 3332955 heartbeat IPC: 3.00034 cumulative IPC: 3.00034 (Simulation time: 0 hr 1 min 54 sec) 
Heartbeat CPU 2 instructions: 10000000 cycles: 3332963 heartbeat IPC: 3.00033 cumulative IPC: 3.00033 (Simulation time: 0 hr 1 min 54 sec) 
Heartbeat CPU 3 instructions: 10000000 cycles: 3332973 heartbeat IPC: 3.00032 cumulative IPC: 3.00032 (Simulation time: 0 hr 1 min 54 sec) 
Heartbeat CPU 0 instructions: 20000000 cycles: 6665464 heartbeat IPC: 3.00073 cumulative IPC: 3.00054 (Simulation time: 0 hr 3 min 41 sec) 
Heartbeat CPU 1 instructions: 20000000 cycles: 6665475 heartbeat IPC: 3.00073 cumulative IPC: 3.00054 (Simulation time: 0 hr 3 min 41 sec) 
Heartbeat CPU 2 instructions: 20000000 cycles: 6665483 heartbeat IPC: 3.00073 cumulative IPC: 3.00053 (Simulation time: 0 hr 3 min 41 sec) 
Heartbeat CPU 3 instructions: 20000000 cycles: 6665493 heartbeat IPC: 3.00073 cumulative IPC: 3.00053 (Simulation time: 0 hr 3 min 41 sec) 
Heartbeat CPU 0 instructions: 30000001 cycles: 9998068 heartbeat IPC: 3.00066 cumulative IPC: 3.00058 (Simulation time: 0 hr 5 min 22 sec) 
Heartbeat CPU 1 instructions: 30000001 cycles: 9998087 heartbeat IPC: 3.00065 cumulative IPC: 3.00057 (Simulation time: 0 hr 5 min 22 sec) 
Heartbeat CPU 2 instructions: 30000001 cycles: 9998097 heartbeat IPC: 3.00065 cumulative IPC: 3.00057 (Simulation time: 0 hr 5 min 22 sec) 
Heartbeat CPU 3 instructions: 30000001 cycles: 9998112 heartbeat IPC: 3.00064 cumulative IPC: 3.00057 (Simulation time: 0 hr 5 min 22 sec) 
Heartbeat CPU 0 instructions: 40000000 cycles: 13330753 heartbeat IPC: 3.00058 cumulative IPC: 3.00058 (Simulation time: 0 hr 6 min 58 sec) 
Heartbeat CPU 1 instructions: 40000000 cycles: 13330772 heartbeat IPC: 3.00058 cumulative IPC: 3.00058 (Simulation time: 0 hr 6 min 58 sec) 
Heartbeat CPU 2 instructions: 40000000 cycles: 13330782 heartbeat IPC: 3.00058 cumulative IPC: 3.00057 (Simulation time: 0 hr 6 min 58 sec) 
Heartbeat CPU 3 instructions: 40000000 cycles: 13330797 heartbeat IPC: 3.00058 cumulative IPC: 3.00057 (Simulation time: 0 hr 6 min 58 sec) 
Heartbeat CPU 0 instructions: 50000001 cycles: 16663431 heartbeat IPC: 3.00059 cumulative IPC: 3.00058 (Simulation time: 0 hr 8 min 36 sec) 
Heartbeat CPU 1 instructions: 50000001 cycles: 16663450 heartbeat IPC: 3.00059 cumulative IPC: 3.00058 (Simulation time: 0 hr 8 min 36 sec) 
Heartbeat CPU 2 instructions: 50000001 cycles: 16663460 heartbeat IPC: 3.00059 cumulative IPC: 3.00058 (Simulation time: 0 hr 8 min 36 sec) 
Heartbeat CPU 3 instructions: 50000001 cycles: 16663475 heartbeat IPC: 3.00059 cumulative IPC: 3.00057 (Simulation time: 0 hr 8 min 36 sec) 

Warmup complete CPU 0 instructions: 50000120 cycles: 16663475 (Simulation time: 0 hr 8 min 36 sec) 
Warmup complete CPU 1 instructions: 50000064 cycles: 16663475 (Simulation time: 0 hr 8 min 36 sec) 
Warmup complete CPU 2 instructions: 50000034 cycles: 16663475 (Simulation time: 0 hr 8 min 36 sec) 
Warmup complete CPU 3 instructions: 50000001 cycles: 16663475 (Simulation time: 0 hr 8 min 36 sec) 

Heartbeat CPU 3 instructions: 60000003 cycles: 41680689 heartbeat IPC: 0.399725 cumulative IPC: 0.399725 (Simulation time: 0 hr 12 min 49 sec) 
Heartbeat CPU 2 instructions: 60000003 cycles: 41891465 heartbeat IPC: 0.396385 cumulative IPC: 0.396384 (Simulation time: 0 hr 12 min 51 sec) 
Heartbeat CPU 0 instructions: 60000001 cycles: 41904355 heartbeat IPC: 0.396182 cumulative IPC: 0.396178 (Simulation time: 0 hr 12 min 51 sec) 
Heartbeat CPU 1 instructions: 60000003 cycles: 41913292 heartbeat IPC: 0.396042 cumulative IPC: 0.39604 (Simulation time: 0 hr 12 min 51 sec) 
Heartbeat CPU 3 instructions: 70000002 cycles: 94583270 heartbeat IPC: 0.189027 cumulative IPC: 0.256674 (Simulation time: 0 hr 20 min 53 sec) 
Heartbeat CPU 2 instructions: 70000002 cycles: 94597293 heartbeat IPC: 0.189732 cumulative IPC: 0.256628 (Simulation time: 0 hr 20 min 53 sec) 
Heartbeat CPU 0 instructions: 70000003 cycles: 94663932 heartbeat IPC: 0.189539 cumulative IPC: 0.256407 (Simulation time: 0 hr 20 min 53 sec) 
Heartbeat CPU 1 instructions: 70000003 cycles: 94798368 heartbeat IPC: 0.189089 cumulative IPC: 0.255967 (Simulation time: 0 hr 20 min 54 sec) 
Heartbeat CPU 3 instructions: 80000000 cycles: 146885032 heartbeat IPC: 0.191198 cumulative IPC: 0.230377 (Simulation time: 0 hr 28 min 5 sec) 
Heartbeat CPU 2 instructions: 80000000 cycles: 147180909 heartbeat IPC: 0.190173 cumulative IPC: 0.229854 (Simulation time: 0 hr 28 min 8 sec) 
Heartbeat CPU 1 instructions: 80000001 cycles: 147258554 heartbeat IPC: 0.190621 cumulative IPC: 0.229717 (Simulation time: 0 hr 28 min 8 sec) 
Heartbeat CPU 0 instructions: 80000000 cycles: 147510860 heartbeat IPC: 0.189226 cumulative IPC: 0.229274 (Simulation time: 0 hr 28 min 10 sec) 
Heartbeat CPU 3 instructions: 90000000 cycles: 199667155 heartbeat IPC: 0.189458 cumulative IPC: 0.218575 (Simulation time: 0 hr 35 min 37 sec) 
Heartbeat CPU 2 instructions: 90000003 cycles: 199856328 heartbeat IPC: 0.189842 cumulative IPC: 0.218349 (Simulation time: 0 hr 35 min 38 sec) 
Heartbeat CPU 1 instructions: 90000003 cycles: 200034735 heartbeat IPC: 0.189479 cumulative IPC: 0.218136 (Simulation time: 0 hr 35 min 40 sec) 
Heartbeat CPU 0 instructions: 90000000 cycles: 200225414 heartbeat IPC: 0.189701 cumulative IPC: 0.217909 (Simulation time: 0 hr 35 min 42 sec) 
Heartbeat CPU 3 instructions: 100000001 cycles: 252385647 heartbeat IPC: 0.189687 cumulative IPC: 0.212114 (Simulation time: 0 hr 44 min 14 sec) 
Heartbeat CPU 2 instructions: 100000001 cycles: 252689771 heartbeat IPC: 0.189274 cumulative IPC: 0.211841 (Simulation time: 0 hr 44 min 17 sec) 
Heartbeat CPU 1 instructions: 100000002 cycles: 252998095 heartbeat IPC: 0.18881 cumulative IPC: 0.211564 (Simulation time: 0 hr 44 min 20 sec) 
Heartbeat CPU 0 instructions: 100000002 cycles: 253102008 heartbeat IPC: 0.18912 cumulative IPC: 0.211471 (Simulation time: 0 hr 44 min 21 sec) 
Heartbeat CPU 3 instructions: 110000000 cycles: 305438664 heartbeat IPC: 0.188491 cumulative IPC: 0.207774 (Simulation time: 0 hr 51 min 58 sec) 
Heartbeat CPU 2 instructions: 110000000 cycles: 305571432 heartbeat IPC: 0.189101 cumulative IPC: 0.207678 (Simulation time: 0 hr 51 min 59 sec) 
Heartbeat CPU 1 instructions: 110000000 cycles: 306099945 heartbeat IPC: 0.188317 cumulative IPC: 0.207299 (Simulation time: 0 hr 52 min 5 sec) 
Heartbeat CPU 0 instructions: 110000000 cycles: 306426920 heartbeat IPC: 0.18753 cumulative IPC: 0.207065 (Simulation time: 0 hr 52 min 8 sec) 
Heartbeat CPU 2 instructions: 120000000 cycles: 356955005 heartbeat IPC: 0.194615 cumulative IPC: 0.205706 (Simulation time: 0 hr 59 min 5 sec) 
Heartbeat CPU 3 instructions: 120000000 cycles: 356976148 heartbeat IPC: 0.194034 cumulative IPC: 0.205693 (Simulation time: 0 hr 59 min 6 sec) 
Heartbeat CPU 1 instructions: 120000000 cycles: 357080455 heartbeat IPC: 0.196153 cumulative IPC: 0.20563 (Simulation time: 0 hr 59 min 7 sec) 
Heartbeat CPU 0 instructions: 120000000 cycles: 357158089 heartbeat IPC: 0.197117 cumulative IPC: 0.205583 (Simulation time: 0 hr 59 min 8 sec) 
Heartbeat CPU 2 instructions: 130000002 cycles: 384060647 heartbeat IPC: 0.368927 cumulative IPC: 0.217748 (Simulation time: 1 hr 4 min 43 sec) 
Heartbeat CPU 1 instructions: 130000002 cycles: 384167731 heartbeat IPC: 0.369177 cumulative IPC: 0.217684 (Simulation time: 1 hr 4 min 45 sec) 
Heartbeat CPU 3 instructions: 130000002 cycles: 384243447 heartbeat IPC: 0.36674 cumulative IPC: 0.21764 (Simulation time: 1 hr 4 min 46 sec) 
Heartbeat CPU 0 instructions: 130000002 cycles: 384335119 heartbeat IPC: 0.367958 cumulative IPC: 0.217585 (Simulation time: 1 hr 4 min 47 sec) 
Heartbeat CPU 2 instructions: 140000000 cycles: 420961163 heartbeat IPC: 0.270999 cumulative IPC: 0.222608 (Simulation time: 1 hr 11 min 49 sec) 
Heartbeat CPU 3 instructions: 140000000 cycles: 421000119 heartbeat IPC: 0.272059 cumulative IPC: 0.222587 (Simulation time: 1 hr 11 min 49 sec) 
Heartbeat CPU 1 instructions: 140000000 cycles: 421073624 heartbeat IPC: 0.270959 cumulative IPC: 0.222546 (Simulation time: 1 hr 11 min 50 sec) 
Heartbeat CPU 0 instructions: 140000000 cycles: 421169427 heartbeat IPC: 0.271486 cumulative IPC: 0.222493 (Simulation time: 1 hr 11 min 51 sec) 
Heartbeat CPU 2 instructions: 150000001 cycles: 459435542 heartbeat IPC: 0.259913 cumulative IPC: 0.22585 (Simulation time: 1 hr 19 min 16 sec) 
Heartbeat CPU 3 instructions: 150000001 cycles: 459498469 heartbeat IPC: 0.259751 cumulative IPC: 0.225818 (Simulation time: 1 hr 19 min 18 sec) 
Heartbeat CPU 1 instructions: 150000001 cycles: 459551908 heartbeat IPC: 0.259887 cumulative IPC: 0.22579 (Simulation time: 1 hr 19 min 19 sec) 
Heartbeat CPU 0 instructions: 150000001 cycles: 459642970 heartbeat IPC: 0.259919 cumulative IPC: 0.225744 (Simulation time: 1 hr 19 min 21 sec) 
Heartbeat CPU 2 instructions: 160000002 cycles: 472679636 heartbeat IPC: 0.755054 cumulative IPC: 0.241219 (Simulation time: 1 hr 24 min 14 sec) 
Heartbeat CPU 1 instructions: 160000002 cycles: 472756523 heartbeat IPC: 0.757311 cumulative IPC: 0.241179 (Simulation time: 1 hr 24 min 15 sec) 
Heartbeat CPU 3 instructions: 160000002 cycles: 472775152 heartbeat IPC: 0.7532 cumulative IPC: 0.241169 (Simulation time: 1 hr 24 min 16 sec) 
Heartbeat CPU 0 instructions: 160000002 cycles: 472837248 heartbeat IPC: 0.757904 cumulative IPC: 0.241136 (Simulation time: 1 hr 24 min 18 sec) 
Heartbeat CPU 1 instructions: 170000002 cycles: 484985283 heartbeat IPC: 0.817744 cumulative IPC: 0.256234 (Simulation time: 1 hr 29 min 16 sec) 
Heartbeat CPU 2 instructions: 170000002 cycles: 484993859 heartbeat IPC: 0.812069 cumulative IPC: 0.256229 (Simulation time: 1 hr 29 min 17 sec) 
Heartbeat CPU 3 instructions: 170000002 cycles: 485062537 heartbeat IPC: 0.813843 cumulative IPC: 0.256192 (Simulation time: 1 hr 29 min 18 sec) 
Heartbeat CPU 0 instructions: 170000002 cycles: 485090356 heartbeat IPC: 0.816119 cumulative IPC: 0.256176 (Simulation time: 1 hr 29 min 19 sec) 
Heartbeat CPU 1 instructions: 180000000 cycles: 498883387 heartbeat IPC: 0.719522 cumulative IPC: 0.269586 (Simulation time: 1 hr 33 min 51 sec) 
Heartbeat CPU 2 instructions: 180000000 cycles: 498986943 heartbeat IPC: 0.714639 cumulative IPC: 0.269529 (Simulation time: 1 hr 33 min 53 sec) 
Heartbeat CPU 3 instructions: 180000000 cycles: 499141808 heartbeat IPC: 0.710264 cumulative IPC: 0.269442 (Simulation time: 1 hr 33 min 57 sec) 
Heartbeat CPU 0 instructions: 180000000 cycles: 499161428 heartbeat IPC: 0.710678 cumulative IPC: 0.269431 (Simulation time: 1 hr 33 min 58 sec) 
Heartbeat CPU 1 instructions: 190000000 cycles: 511478628 heartbeat IPC: 0.793951 cumulative IPC: 0.282934 (Simulation time: 1 hr 38 min 43 sec) 
Heartbeat CPU 2 instructions: 190000000 cycles: 511643046 heartbeat IPC: 0.790133 cumulative IPC: 0.28284 (Simulation time: 1 hr 38 min 46 sec) 
Heartbeat CPU 0 instructions: 190000000 cycles: 511873611 heartbeat IPC: 0.786647 cumulative IPC: 0.282708 (Simulation time: 1 hr 38 min 50 sec) 
Heartbeat CPU 3 instructions: 190000001 cycles: 511886441 heartbeat IPC: 0.784644 cumulative IPC: 0.282701 (Simulation time: 1 hr 38 min 51 sec) 
Heartbeat CPU 1 instructions: 200000000 cycles: 538471634 heartbeat IPC: 0.370466 cumulative IPC: 0.287462 (Simulation time: 1 hr 44 min 17 sec) 
Heartbeat CPU 2 instructions: 200000000 cycles: 538694355 heartbeat IPC: 0.369668 cumulative IPC: 0.287339 (Simulation time: 1 hr 44 min 20 sec) 
Heartbeat CPU 0 instructions: 200000000 cycles: 538975384 heartbeat IPC: 0.36898 cumulative IPC: 0.287184 (Simulation time: 1 hr 44 min 23 sec) 
Heartbeat CPU 3 instructions: 200000000 cycles: 538982519 heartbeat IPC: 0.369057 cumulative IPC: 0.287181 (Simulation time: 1 hr 44 min 23 sec) 
Heartbeat CPU 1 instructions: 210000002 cycles: 566530986 heartbeat IPC: 0.356387 cumulative IPC: 0.290979 (Simulation time: 1 hr 50 min 31 sec) 
Heartbeat CPU 2 instructions: 210000000 cycles: 566672336 heartbeat IPC: 0.357424 cumulative IPC: 0.290904 (Simulation time: 1 hr 50 min 33 sec) 
Heartbeat CPU 3 instructions: 210000000 cycles: 567074107 heartbeat IPC: 0.355978 cumulative IPC: 0.290692 (Simulation time: 1 hr 50 min 38 sec) 
Heartbeat CPU 0 instructions: 210000000 cycles: 567108444 heartbeat IPC: 0.355454 cumulative IPC: 0.290674 (Simulation time: 1 hr 50 min 38 sec) 
Heartbeat CPU 1 instructions: 220000000 cycles: 589773049 heartbeat IPC: 0.430254 cumulative IPC: 0.296627 (Simulation time: 1 hr 55 min 26 sec) 
Heartbeat CPU 2 instructions: 220000000 cycles: 589947399 heartbeat IPC: 0.429644 cumulative IPC: 0.296537 (Simulation time: 1 hr 55 min 29 sec) 
Heartbeat CPU 0 instructions: 220000000 cycles: 590449704 heartbeat IPC: 0.428426 cumulative IPC: 0.296277 (Simulation time: 1 hr 55 min 40 sec) 
Heartbeat CPU 3 instructions: 220000000 cycles: 590495019 heartbeat IPC: 0.426969 cumulative IPC: 0.296254 (Simulation time: 1 hr 55 min 40 sec) 
Heartbeat CPU 1 instructions: 230000000 cycles: 615265991 heartbeat IPC: 0.392265 cumulative IPC: 0.3007 (Simulation time: 2 hr 1 min 31 sec) 
Heartbeat CPU 2 instructions: 230000000 cycles: 615435984 heartbeat IPC: 0.392332 cumulative IPC: 0.300615 (Simulation time: 2 hr 1 min 34 sec) 
Heartbeat CPU 0 instructions: 230000000 cycles: 616081927 heartbeat IPC: 0.390134 cumulative IPC: 0.300291 (Simulation time: 2 hr 1 min 42 sec) 
Heartbeat CPU 3 instructions: 230000000 cycles: 616108577 heartbeat IPC: 0.390418 cumulative IPC: 0.300278 (Simulation time: 2 hr 1 min 43 sec) 
Heartbeat CPU 1 instructions: 240000002 cycles: 636616095 heartbeat IPC: 0.468382 cumulative IPC: 0.306475 (Simulation time: 2 hr 7 min 17 sec) 
Heartbeat CPU 2 instructions: 240000002 cycles: 636789602 heartbeat IPC: 0.468305 cumulative IPC: 0.306389 (Simulation time: 2 hr 7 min 20 sec) 
Heartbeat CPU 0 instructions: 240000002 cycles: 637459281 heartbeat IPC: 0.467785 cumulative IPC: 0.306059 (Simulation time: 2 hr 7 min 32 sec) 
Heartbeat CPU 3 instructions: 240000002 cycles: 637503697 heartbeat IPC: 0.467396 cumulative IPC: 0.306037 (Simulation time: 2 hr 7 min 33 sec) 
*** Reached end of trace for Core: 1 Repeating trace: ./traces/ligra/ligra_PageRankDelta.com-lj.ungraph.gcc_6.3.0_O3.drop_24000M.length_250M.champsimtrace.xz
Heartbeat CPU 1 instructions: 250000002 cycles: 659020116 heartbeat IPC: 0.446348 cumulative IPC: 0.311353 (Simulation time: 2 hr 13 min 6 sec) 
Finished CPU 1 instructions: 200000001 cycles: 642358769 cumulative IPC: 0.311352 (Simulation time: 2 hr 13 min 6 sec) 
*** Reached end of trace for Core: 2 Repeating trace: ./traces/ligra/ligra_PageRankDelta.com-lj.ungraph.gcc_6.3.0_O3.drop_24000M.length_250M.champsimtrace.xz
Heartbeat CPU 2 instructions: 250000002 cycles: 659627422 heartbeat IPC: 0.43787 cumulative IPC: 0.311059 (Simulation time: 2 hr 13 min 14 sec) 
Finished CPU 2 instructions: 200000000 cycles: 642967385 cumulative IPC: 0.311058 (Simulation time: 2 hr 13 min 14 sec) 
*** Reached end of trace for Core: 3 Repeating trace: ./traces/ligra/ligra_PageRankDelta.com-lj.ungraph.gcc_6.3.0_O3.drop_24000M.length_250M.champsimtrace.xz
Heartbeat CPU 3 instructions: 250000002 cycles: 663167917 heartbeat IPC: 0.389648 cumulative IPC: 0.309356 (Simulation time: 2 hr 14 min 12 sec) 
Finished CPU 3 instructions: 200000001 cycles: 646504442 cumulative IPC: 0.309356 (Simulation time: 2 hr 14 min 12 sec) 
*** Reached end of trace for Core: 0 Repeating trace: ./traces/ligra/ligra_PageRankDelta.com-lj.ungraph.gcc_6.3.0_O3.drop_24000M.length_250M.champsimtrace.xz
Heartbeat CPU 0 instructions: 250000002 cycles: 663423390 heartbeat IPC: 0.385147 cumulative IPC: 0.309234 (Simulation time: 2 hr 14 min 16 sec) 
Finished CPU 0 instructions: 200000001 cycles: 646764820 cumulative IPC: 0.309231 (Simulation time: 2 hr 14 min 16 sec) 

ChampSim completed all CPUs

Total Simulation Statistics (not including warmup)

CPU 0 cumulative IPC: 0.309231 instructions: 200000001 cycles: 646764820
ITLB TOTAL     ACCESS:   28430262  HIT:   28430259  MISS:          3  HIT %:        100  MISS %: 1.05521e-05   MPKI: 1.5e-05
ITLB LOAD      ACCESS:          0  HIT:          0  MISS:          0  HIT %:       -nan  MISS %:       -nan   MPKI: 0
ITLB RFO       ACCESS:          0  HIT:          0  MISS:          0  HIT %:       -nan  MISS %:       -nan   MPKI: 0
ITLB PREFETCH  ACCESS:          0  HIT:          0  MISS:          0  HIT %:       -nan  MISS %:       -nan   MPKI: 0
ITLB WRITEBACK ACCESS:          0  HIT:          0  MISS:          0  HIT %:       -nan  MISS %:       -nan   MPKI: 0
DTLB TOTAL     ACCESS:   52199827  HIT:   49742057  MISS:    2457770  HIT %:    95.2916  MISS %:    4.70839   MPKI: 12.2888
DTLB LOAD      ACCESS:          0  HIT:          0  MISS:          0  HIT %:       -nan  MISS %:       -nan   MPKI: 0
DTLB RFO       ACCESS:          0  HIT:          0  MISS:          0  HIT %:       -nan  MISS %:       -nan   MPKI: 0
DTLB PREFETCH  ACCESS:          0  HIT:          0  MISS:          0  HIT %:       -nan  MISS %:       -nan   MPKI: 0
DTLB WRITEBACK ACCESS:          0  HIT:          0  MISS:          0  HIT %:       -nan  MISS %:       -nan   MPKI: 0
STLB TOTAL     ACCESS:   13807244  HIT:   13482457  MISS:     324787  HIT %:    97.6477  MISS %:    2.35229   MPKI: 1.62393
STLB LOAD      ACCESS:          0  HIT:          0  MISS:          0  HIT %:       -nan  MISS %:       -nan   MPKI: 0
STLB RFO       ACCESS:          0  HIT:          0  MISS:          0  HIT %:       -nan  MISS %:       -nan   MPKI: 0
STLB PREFETCH  ACCESS:          0  HIT:          0  MISS:          0  HIT %:       -nan  MISS %:       -nan   MPKI: 0
STLB WRITEBACK ACCESS:          0  HIT:          0  MISS:          0  HIT %:       -nan  MISS %:       -nan   MPKI: 0
L1D TOTAL     ACCESS:   84514316  HIT:   77198779  MISS:    7315537  HIT %:     91.344  MISS %:    8.65597   MPKI: 36.5777
L1D LOAD      ACCESS:   35160903  HIT:   30753868  MISS:    4407035  HIT %:    87.4661  MISS %:    12.5339   MPKI: 22.0352
L1D RFO       ACCESS:   17269707  HIT:   15675630  MISS:    1594077  HIT %:    90.7695  MISS %:    9.23048   MPKI: 7.97038
L1D PREFETCH  ACCESS:   32083706  HIT:   30769281  MISS:    1314425  HIT %:    95.9031  MISS %:    4.09686   MPKI: 6.57212
L1D WRITEBACK ACCESS:          0  HIT:          0  MISS:          0  HIT %:       -nan  MISS %:       -nan   MPKI: 0
L1I TOTAL     ACCESS:   36478123  HIT:   36478084  MISS:         39  HIT %:    99.9999  MISS %: 0.000106913   MPKI: 0.000195
L1I LOAD      ACCESS:   36478123  HIT:   36478084  MISS:         39  HIT %:    99.9999  MISS %: 0.000106913   MPKI: 0.000195
L1I RFO       ACCESS:          0  HIT:          0  MISS:          0  HIT %:       -nan  MISS %:       -nan   MPKI: 0
L1I PREFETCH  ACCESS:          0  HIT:          0  MISS:          0  HIT %:       -nan  MISS %:       -nan   MPKI: 0
L1I WRITEBACK ACCESS:          0  HIT:          0  MISS:          0  HIT %:       -nan  MISS %:       -nan   MPKI: 0
L2C TOTAL     ACCESS:   26040668  HIT:   19547078  MISS:    6493590  HIT %:    75.0637  MISS %:    24.9363   MPKI: 32.4679
L2C LOAD      ACCESS:    4092671  HIT:    1813796  MISS:    2278875  HIT %:    44.3181  MISS %:    55.6819   MPKI: 11.3944
L2C RFO       ACCESS:    1594077  HIT:          0  MISS:    1594077  HIT %:          0  MISS %:        100   MPKI: 7.97038
L2C PREFETCH  ACCESS:   14362982  HIT:   12214973  MISS:    2148009  HIT %:    85.0448  MISS %:    14.9552   MPKI: 10.74
L2C WRITEBACK ACCESS:    4967729  HIT:    4598299  MISS:     369430  HIT %:    92.5634  MISS %:     7.4366   MPKI: 1.84715
PSCL5 TOTAL     ACCESS:    1021950  HIT:    1021950  MISS:          0  HIT %:        100  MISS %:          0   MPKI: 0
PSCL5 LOAD      ACCESS:          0  HIT:          0  MISS:          0  HIT %:       -nan  MISS %:       -nan   MPKI: 0
PSCL5 RFO       ACCESS:          0  HIT:          0  MISS:          0  HIT %:       -nan  MISS %:       -nan   MPKI: 0
PSCL5 PREFETCH  ACCESS:          0  HIT:          0  MISS:          0  HIT %:       -nan  MISS %:       -nan   MPKI: 0
PSCL5 WRITEBACK ACCESS:          0  HIT:          0  MISS:          0  HIT %:       -nan  MISS %:       -nan   MPKI: 0
PSCL4 TOTAL     ACCESS:    1021950  HIT:    1021950  MISS:          0  HIT %:        100  MISS %:          0   MPKI: 0
PSCL4 LOAD      ACCESS:          0  HIT:          0  MISS:          0  HIT %:       -nan  MISS %:       -nan   MPKI: 0
PSCL4 RFO       ACCESS:          0  HIT:          0  MISS:          0  HIT %:       -nan  MISS %:       -nan   MPKI: 0
PSCL4 PREFETCH  ACCESS:          0  HIT:          0  MISS:          0  HIT %:       -nan  MISS %:       -nan   MPKI: 0
PSCL4 WRITEBACK ACCESS:          0  HIT:          0  MISS:          0  HIT %:       -nan  MISS %:       -nan   MPKI: 0
PSCL3 TOTAL     ACCESS:    1021950  HIT:    1021950  MISS:          0  HIT %:        100  MISS %:          0   MPKI: 0
PSCL3 LOAD      ACCESS:          0  HIT:          0  MISS:          0  HIT %:       -nan  MISS %:       -nan   MPKI: 0
PSCL3 RFO       ACCESS:          0  HIT:          0  MISS:          0  HIT %:       -nan  MISS %:       -nan   MPKI: 0
PSCL3 PREFETCH  ACCESS:          0  HIT:          0  MISS:          0  HIT %:       -nan  MISS %:       -nan   MPKI: 0
PSCL3 WRITEBACK ACCESS:          0  HIT:          0  MISS:          0  HIT %:       -nan  MISS %:       -nan   MPKI: 0
PSCL2 TOTAL     ACCESS:    1018702  HIT:    1018532  MISS:        170  HIT %:    99.9833  MISS %:  0.0166879   MPKI: 0.00085
PSCL2 LOAD      ACCESS:          0  HIT:          0  MISS:          0  HIT %:       -nan  MISS %:       -nan   MPKI: 0
PSCL2 RFO       ACCESS:          0  HIT:          0  MISS:          0  HIT %:       -nan  MISS %:       -nan   MPKI: 0
PSCL2 PREFETCH  ACCESS:          0  HIT:          0  MISS:          0  HIT %:       -nan  MISS %:       -nan   MPKI: 0
PSCL2 WRITEBACK ACCESS:          0  HIT:          0  MISS:          0  HIT %:       -nan  MISS %:       -nan   MPKI: 0
LLC TOTAL     ACCESS:    9740193  HIT:    4845546  MISS:    4894647  HIT %:    49.7479  MISS %:    50.2521   MPKI: 24.4732
LLC LOAD      ACCESS:    2061895  HIT:    1170785  MISS:     891110  HIT %:     56.782  MISS %:     43.218   MPKI: 4.45555
LLC RFO       ACCESS:    1594077  HIT:          0  MISS:    1594077  HIT %:          0  MISS %:        100   MPKI: 7.97038
LLC PREFETCH  ACCESS:    2364964  HIT:      37781  MISS:    2327183  HIT %:    1.59753  MISS %:    98.4025   MPKI: 11.6359
LLC WRITEBACK ACCESS:    3616058  HIT:    3547403  MISS:      68655  HIT %:    98.1014  MISS %:    1.89861   MPKI: 0.343275

RAW hits: 19035699
Loads Generated: 82688966
Loads sent to L1D: 63653265
Stores Generated: 32928510
Stores sent to L1D: 32928494

CPU 1 cumulative IPC: 0.314297 instructions: 203276174 cycles: 646764820
ITLB TOTAL     ACCESS:   28972420  HIT:   28972417  MISS:          3  HIT %:        100  MISS %: 1.03547e-05   MPKI: 1.47582e-05
ITLB LOAD      ACCESS:          0  HIT:          0  MISS:          0  HIT %:       -nan  MISS %:       -nan   MPKI: 0
ITLB RFO       ACCESS:          0  HIT:          0  MISS:          0  HIT %:       -nan  MISS %:       -nan   MPKI: 0
ITLB PREFETCH  ACCESS:          0  HIT:          0  MISS:          0  HIT %:       -nan  MISS %:       -nan   MPKI: 0
ITLB WRITEBACK ACCESS:          0  HIT:          0  MISS:          0  HIT %:       -nan  MISS %:       -nan   MPKI: 0
DTLB TOTAL     ACCESS:   52672018  HIT:   50213469  MISS:    2458549  HIT %:    95.3323  MISS %:    4.66766   MPKI: 12.0946
DTLB LOAD      ACCESS:          0  HIT:          0  MISS:          0  HIT %:       -nan  MISS %:       -nan   MPKI: 0
DTLB RFO       ACCESS:          0  HIT:          0  MISS:          0  HIT %:       -nan  MISS %:       -nan   MPKI: 0
DTLB PREFETCH  ACCESS:          0  HIT:          0  MISS:          0  HIT %:       -nan  MISS %:       -nan   MPKI: 0
DTLB WRITEBACK ACCESS:          0  HIT:          0  MISS:          0  HIT %:       -nan  MISS %:       -nan   MPKI: 0
STLB TOTAL     ACCESS:   14063716  HIT:   13738176  MISS:     325540  HIT %:    97.6852  MISS %:    2.31475   MPKI: 1.60147
STLB LOAD      ACCESS:          0  HIT:          0  MISS:          0  HIT %:       -nan  MISS %:       -nan   MPKI: 0
STLB RFO       ACCESS:          0  HIT:          0  MISS:          0  HIT %:       -nan  MISS %:       -nan   MPKI: 0
STLB PREFETCH  ACCESS:          0  HIT:          0  MISS:          0  HIT %:       -nan  MISS %:       -nan   MPKI: 0
STLB WRITEBACK ACCESS:          0  HIT:          0  MISS:          0  HIT %:       -nan  MISS %:       -nan   MPKI: 0
L1D TOTAL     ACCESS:   84999784  HIT:   77635392  MISS:    7364392  HIT %:     91.336  MISS %:    8.66401   MPKI: 36.2285
L1D LOAD      ACCESS:   35319170  HIT:   30906567  MISS:    4412603  HIT %:    87.5065  MISS %:    12.4935   MPKI: 21.7074
L1D RFO       ACCESS:   17311674  HIT:   15676477  MISS:    1635197  HIT %:    90.5544  MISS %:    9.44563   MPKI: 8.04421
L1D PREFETCH  ACCESS:   32368940  HIT:   31052348  MISS:    1316592  HIT %:    95.9325  MISS %:    4.06745   MPKI: 6.47686
L1D WRITEBACK ACCESS:          0  HIT:          0  MISS:          0  HIT %:       -nan  MISS %:       -nan   MPKI: 0
L1I TOTAL     ACCESS:   37021206  HIT:   37021167  MISS:         39  HIT %:    99.9999  MISS %: 0.000105345   MPKI: 0.000191857
L1I LOAD      ACCESS:   37021206  HIT:   37021167  MISS:         39  HIT %:    99.9999  MISS %: 0.000105345   MPKI: 0.000191857
L1I RFO       ACCESS:          0  HIT:          0  MISS:          0  HIT %:       -nan  MISS %:       -nan   MPKI: 0
L1I PREFETCH  ACCESS:          0  HIT:          0  MISS:          0  HIT %:       -nan  MISS %:       -nan   MPKI: 0
L1I WRITEBACK ACCESS:          0  HIT:          0  MISS:          0  HIT %:       -nan  MISS %:       -nan   MPKI: 0
L2C TOTAL     ACCESS:   26695383  HIT:   20135863  MISS:    6559520  HIT %:    75.4283  MISS %:    24.5717   MPKI: 32.269
L2C LOAD      ACCESS:    4100779  HIT:    1822347  MISS:    2278432  HIT %:     44.439  MISS %:     55.561   MPKI: 11.2086
L2C RFO       ACCESS:    1635197  HIT:         10  MISS:    1635187  HIT %: 0.000611547  MISS %:    99.9994   MPKI: 8.04416
L2C PREFETCH  ACCESS:   14914498  HIT:   12755905  MISS:    2158593  HIT %:    85.5269  MISS %:    14.4731   MPKI: 10.619
L2C WRITEBACK ACCESS:    5009072  HIT:    4622713  MISS:     386359  HIT %:    92.2868  MISS %:    7.71319   MPKI: 1.90066
PSCL5 TOTAL     ACCESS:    1034554  HIT:    1034554  MISS:          0  HIT %:        100  MISS %:          0   MPKI: 0
PSCL5 LOAD      ACCESS:          0  HIT:          0  MISS:          0  HIT %:       -nan  MISS %:       -nan   MPKI: 0
PSCL5 RFO       ACCESS:          0  HIT:          0  MISS:          0  HIT %:       -nan  MISS %:       -nan   MPKI: 0
PSCL5 PREFETCH  ACCESS:          0  HIT:          0  MISS:          0  HIT %:       -nan  MISS %:       -nan   MPKI: 0
PSCL5 WRITEBACK ACCESS:          0  HIT:          0  MISS:          0  HIT %:       -nan  MISS %:       -nan   MPKI: 0
PSCL4 TOTAL     ACCESS:    1034554  HIT:    1034554  MISS:          0  HIT %:        100  MISS %:          0   MPKI: 0
PSCL4 LOAD      ACCESS:          0  HIT:          0  MISS:          0  HIT %:       -nan  MISS %:       -nan   MPKI: 0
PSCL4 RFO       ACCESS:          0  HIT:          0  MISS:          0  HIT %:       -nan  MISS %:       -nan   MPKI: 0
PSCL4 PREFETCH  ACCESS:          0  HIT:          0  MISS:          0  HIT %:       -nan  MISS %:       -nan   MPKI: 0
PSCL4 WRITEBACK ACCESS:          0  HIT:          0  MISS:          0  HIT %:       -nan  MISS %:       -nan   MPKI: 0
PSCL3 TOTAL     ACCESS:    1034554  HIT:    1034554  MISS:          0  HIT %:        100  MISS %:          0   MPKI: 0
PSCL3 LOAD      ACCESS:          0  HIT:          0  MISS:          0  HIT %:       -nan  MISS %:       -nan   MPKI: 0
PSCL3 RFO       ACCESS:          0  HIT:          0  MISS:          0  HIT %:       -nan  MISS %:       -nan   MPKI: 0
PSCL3 PREFETCH  ACCESS:          0  HIT:          0  MISS:          0  HIT %:       -nan  MISS %:       -nan   MPKI: 0
PSCL3 WRITEBACK ACCESS:          0  HIT:          0  MISS:          0  HIT %:       -nan  MISS %:       -nan   MPKI: 0
PSCL2 TOTAL     ACCESS:    1031742  HIT:    1031562  MISS:        180  HIT %:    99.9826  MISS %:  0.0174462   MPKI: 0.000885495
PSCL2 LOAD      ACCESS:          0  HIT:          0  MISS:          0  HIT %:       -nan  MISS %:       -nan   MPKI: 0
PSCL2 RFO       ACCESS:          0  HIT:          0  MISS:          0  HIT %:       -nan  MISS %:       -nan   MPKI: 0
PSCL2 PREFETCH  ACCESS:          0  HIT:          0  MISS:          0  HIT %:       -nan  MISS %:       -nan   MPKI: 0
PSCL2 WRITEBACK ACCESS:          0  HIT:          0  MISS:          0  HIT %:       -nan  MISS %:       -nan   MPKI: 0
LLC TOTAL     ACCESS:    9830674  HIT:    4892864  MISS:    4937810  HIT %:    49.7714  MISS %:    50.2286   MPKI: 24.2911
LLC LOAD      ACCESS:    2060385  HIT:    1175292  MISS:     885093  HIT %:    57.0423  MISS %:    42.9577   MPKI: 4.35414
LLC RFO       ACCESS:    1635187  HIT:        187  MISS:    1635000  HIT %:   0.011436  MISS %:    99.9886   MPKI: 8.04324
LLC PREFETCH  ACCESS:    2376605  HIT:      39493  MISS:    2337112  HIT %:    1.66174  MISS %:    98.3383   MPKI: 11.4972
LLC WRITEBACK ACCESS:    3657548  HIT:    3590314  MISS:      67234  HIT %:    98.1618  MISS %:    1.83823   MPKI: 0.330752

RAW hits: 19035714
Loads Generated: 83212571
Loads sent to L1D: 64176856
Stores Generated: 33257493
Stores sent to L1D: 33257494

CPU 2 cumulative IPC: 0.313139 instructions: 202527484 cycles: 646764820
ITLB TOTAL     ACCESS:   28850984  HIT:   28850981  MISS:          3  HIT %:        100  MISS %: 1.03983e-05   MPKI: 1.48128e-05
ITLB LOAD      ACCESS:          0  HIT:          0  MISS:          0  HIT %:       -nan  MISS %:       -nan   MPKI: 0
ITLB RFO       ACCESS:          0  HIT:          0  MISS:          0  HIT %:       -nan  MISS %:       -nan   MPKI: 0
ITLB PREFETCH  ACCESS:          0  HIT:          0  MISS:          0  HIT %:       -nan  MISS %:       -nan   MPKI: 0
ITLB WRITEBACK ACCESS:          0  HIT:          0  MISS:          0  HIT %:       -nan  MISS %:       -nan   MPKI: 0
DTLB TOTAL     ACCESS:   52611527  HIT:   50153021  MISS:    2458506  HIT %:    95.3271  MISS %:    4.67294   MPKI: 12.1391
DTLB LOAD      ACCESS:          0  HIT:          0  MISS:          0  HIT %:       -nan  MISS %:       -nan   MPKI: 0
DTLB RFO       ACCESS:          0  HIT:          0  MISS:          0  HIT %:       -nan  MISS %:       -nan   MPKI: 0
DTLB PREFETCH  ACCESS:          0  HIT:          0  MISS:          0  HIT %:       -nan  MISS %:       -nan   MPKI: 0
DTLB WRITEBACK ACCESS:          0  HIT:          0  MISS:          0  HIT %:       -nan  MISS %:       -nan   MPKI: 0
STLB TOTAL     ACCESS:   13984124  HIT:   13658602  MISS:     325522  HIT %:    97.6722  MISS %:     2.3278   MPKI: 1.6073
STLB LOAD      ACCESS:          0  HIT:          0  MISS:          0  HIT %:       -nan  MISS %:       -nan   MPKI: 0
STLB RFO       ACCESS:          0  HIT:          0  MISS:          0  HIT %:       -nan  MISS %:       -nan   MPKI: 0
STLB PREFETCH  ACCESS:          0  HIT:          0  MISS:          0  HIT %:       -nan  MISS %:       -nan   MPKI: 0
STLB WRITEBACK ACCESS:          0  HIT:          0  MISS:          0  HIT %:       -nan  MISS %:       -nan   MPKI: 0
L1D TOTAL     ACCESS:   84465802  HIT:   77103649  MISS:    7362153  HIT %:    91.2839  MISS %:    8.71613   MPKI: 36.3514
L1D LOAD      ACCESS:   35256259  HIT:   30839021  MISS:    4417238  HIT %:    87.4711  MISS %:    12.5289   MPKI: 21.8106
L1D RFO       ACCESS:   17312515  HIT:   15677322  MISS:    1635193  HIT %:    90.5549  MISS %:    9.44515   MPKI: 8.07393
L1D PREFETCH  ACCESS:   31897028  HIT:   30587306  MISS:    1309722  HIT %:    95.8939  MISS %:    4.10609   MPKI: 6.46689
L1D WRITEBACK ACCESS:          0  HIT:          0  MISS:          0  HIT %:       -nan  MISS %:       -nan   MPKI: 0
L1I TOTAL     ACCESS:   36900258  HIT:   36900219  MISS:         39  HIT %:    99.9999  MISS %: 0.00010569   MPKI: 0.000192566
L1I LOAD      ACCESS:   36900258  HIT:   36900219  MISS:         39  HIT %:    99.9999  MISS %: 0.00010569   MPKI: 0.000192566
L1I RFO       ACCESS:          0  HIT:          0  MISS:          0  HIT %:       -nan  MISS %:       -nan   MPKI: 0
L1I PREFETCH  ACCESS:          0  HIT:          0  MISS:          0  HIT %:       -nan  MISS %:       -nan   MPKI: 0
L1I WRITEBACK ACCESS:          0  HIT:          0  MISS:          0  HIT %:       -nan  MISS %:       -nan   MPKI: 0
L2C TOTAL     ACCESS:   26621437  HIT:   20060791  MISS:    6560646  HIT %:    75.3558  MISS %:    24.6442   MPKI: 32.3939
L2C LOAD      ACCESS:    4105637  HIT:    1822618  MISS:    2283019  HIT %:    44.3931  MISS %:    55.6069   MPKI: 11.2726
L2C RFO       ACCESS:    1635193  HIT:         11  MISS:    1635182  HIT %: 0.000672703  MISS %:    99.9993   MPKI: 8.07388
L2C PREFETCH  ACCESS:   14826602  HIT:   12673588  MISS:    2153014  HIT %:    85.4787  MISS %:    14.5213   MPKI: 10.6307
L2C WRITEBACK ACCESS:    5009138  HIT:    4620654  MISS:     388484  HIT %:    92.2445  MISS %:    7.75551   MPKI: 1.91818
PSCL5 TOTAL     ACCESS:    1043603  HIT:    1043603  MISS:          0  HIT %:        100  MISS %:          0   MPKI: 0
PSCL5 LOAD      ACCESS:          0  HIT:          0  MISS:          0  HIT %:       -nan  MISS %:       -nan   MPKI: 0
PSCL5 RFO       ACCESS:          0  HIT:          0  MISS:          0  HIT %:       -nan  MISS %:       -nan   MPKI: 0
PSCL5 PREFETCH  ACCESS:          0  HIT:          0  MISS:          0  HIT %:       -nan  MISS %:       -nan   MPKI: 0
PSCL5 WRITEBACK ACCESS:          0  HIT:          0  MISS:          0  HIT %:       -nan  MISS %:       -nan   MPKI: 0
PSCL4 TOTAL     ACCESS:    1043603  HIT:    1043603  MISS:          0  HIT %:        100  MISS %:          0   MPKI: 0
PSCL4 LOAD      ACCESS:          0  HIT:          0  MISS:          0  HIT %:       -nan  MISS %:       -nan   MPKI: 0
PSCL4 RFO       ACCESS:          0  HIT:          0  MISS:          0  HIT %:       -nan  MISS %:       -nan   MPKI: 0
PSCL4 PREFETCH  ACCESS:          0  HIT:          0  MISS:          0  HIT %:       -nan  MISS %:       -nan   MPKI: 0
PSCL4 WRITEBACK ACCESS:          0  HIT:          0  MISS:          0  HIT %:       -nan  MISS %:       -nan   MPKI: 0
PSCL3 TOTAL     ACCESS:    1043603  HIT:    1043603  MISS:          0  HIT %:        100  MISS %:          0   MPKI: 0
PSCL3 LOAD      ACCESS:          0  HIT:          0  MISS:          0  HIT %:       -nan  MISS %:       -nan   MPKI: 0
PSCL3 RFO       ACCESS:          0  HIT:          0  MISS:          0  HIT %:       -nan  MISS %:       -nan   MPKI: 0
PSCL3 PREFETCH  ACCESS:          0  HIT:          0  MISS:          0  HIT %:       -nan  MISS %:       -nan   MPKI: 0
PSCL3 WRITEBACK ACCESS:          0  HIT:          0  MISS:          0  HIT %:       -nan  MISS %:       -nan   MPKI: 0
PSCL2 TOTAL     ACCESS:    1040508  HIT:    1040328  MISS:        180  HIT %:    99.9827  MISS %:  0.0172992   MPKI: 0.000888768
PSCL2 LOAD      ACCESS:          0  HIT:          0  MISS:          0  HIT %:       -nan  MISS %:       -nan   MPKI: 0
PSCL2 RFO       ACCESS:          0  HIT:          0  MISS:          0  HIT %:       -nan  MISS %:       -nan   MPKI: 0
PSCL2 PREFETCH  ACCESS:          0  HIT:          0  MISS:          0  HIT %:       -nan  MISS %:       -nan   MPKI: 0
PSCL2 WRITEBACK ACCESS:          0  HIT:          0  MISS:          0  HIT %:       -nan  MISS %:       -nan   MPKI: 0
LLC TOTAL     ACCESS:    9830895  HIT:    4893868  MISS:    4937027  HIT %:    49.7805  MISS %:    50.2195   MPKI: 24.3771
LLC LOAD      ACCESS:    2063329  HIT:    1177113  MISS:     886216  HIT %:    57.0492  MISS %:    42.9508   MPKI: 4.37578
LLC RFO       ACCESS:    1635182  HIT:        152  MISS:    1635030  HIT %:  0.0092956  MISS %:    99.9907   MPKI: 8.07313
LLC PREFETCH  ACCESS:    2372680  HIT:      38760  MISS:    2333920  HIT %:     1.6336  MISS %:    98.3664   MPKI: 11.524
LLC WRITEBACK ACCESS:    3658757  HIT:    3590574  MISS:      68183  HIT %:    98.1364  MISS %:    1.86356   MPKI: 0.33666

RAW hits: 19035712
Loads Generated: 83062927
Loads sent to L1D: 64027214
Stores Generated: 33257460
Stores sent to L1D: 33257460

CPU 3 cumulative IPC: 0.309542 instructions: 200200803 cycles: 646764820
ITLB TOTAL     ACCESS:   28465092  HIT:   28465089  MISS:          3  HIT %:        100  MISS %: 1.05392e-05   MPKI: 1.4985e-05
ITLB LOAD      ACCESS:          0  HIT:          0  MISS:          0  HIT %:       -nan  MISS %:       -nan   MPKI: 0
ITLB RFO       ACCESS:          0  HIT:          0  MISS:          0  HIT %:       -nan  MISS %:       -nan   MPKI: 0
ITLB PREFETCH  ACCESS:          0  HIT:          0  MISS:          0  HIT %:       -nan  MISS %:       -nan   MPKI: 0
ITLB WRITEBACK ACCESS:          0  HIT:          0  MISS:          0  HIT %:       -nan  MISS %:       -nan   MPKI: 0
DTLB TOTAL     ACCESS:   52234255  HIT:   49776453  MISS:    2457802  HIT %:    95.2947  MISS %:    4.70535   MPKI: 12.2767
DTLB LOAD      ACCESS:          0  HIT:          0  MISS:          0  HIT %:       -nan  MISS %:       -nan   MPKI: 0
DTLB RFO       ACCESS:          0  HIT:          0  MISS:          0  HIT %:       -nan  MISS %:       -nan   MPKI: 0
DTLB PREFETCH  ACCESS:          0  HIT:          0  MISS:          0  HIT %:       -nan  MISS %:       -nan   MPKI: 0
DTLB WRITEBACK ACCESS:          0  HIT:          0  MISS:          0  HIT %:       -nan  MISS %:       -nan   MPKI: 0
STLB TOTAL     ACCESS:   13908394  HIT:   13583513  MISS:     324881  HIT %:    97.6641  MISS %:    2.33586   MPKI: 1.62278
STLB LOAD      ACCESS:          0  HIT:          0  MISS:          0  HIT %:       -nan  MISS %:       -nan   MPKI: 0
STLB RFO       ACCESS:          0  HIT:          0  MISS:          0  HIT %:       -nan  MISS %:       -nan   MPKI: 0
STLB PREFETCH  ACCESS:          0  HIT:          0  MISS:          0  HIT %:       -nan  MISS %:       -nan   MPKI: 0
STLB WRITEBACK ACCESS:          0  HIT:          0  MISS:          0  HIT %:       -nan  MISS %:       -nan   MPKI: 0
L1D TOTAL     ACCESS:   84349593  HIT:   77030824  MISS:    7318769  HIT %:    91.3233  MISS %:    8.67671   MPKI: 36.5571
L1D LOAD      ACCESS:   35166869  HIT:   30753853  MISS:    4413016  HIT %:    87.4512  MISS %:    12.5488   MPKI: 22.0429
L1D RFO       ACCESS:   17276390  HIT:   15678748  MISS:    1597642  HIT %:    90.7525  MISS %:    9.24755   MPKI: 7.9802
L1D PREFETCH  ACCESS:   31906334  HIT:   30598223  MISS:    1308111  HIT %:    95.9002  MISS %:    4.09985   MPKI: 6.53399
L1D WRITEBACK ACCESS:          0  HIT:          0  MISS:          0  HIT %:       -nan  MISS %:       -nan   MPKI: 0
L1I TOTAL     ACCESS:   36512324  HIT:   36512285  MISS:         39  HIT %:    99.9999  MISS %: 0.000106813   MPKI: 0.000194804
L1I LOAD      ACCESS:   36512324  HIT:   36512285  MISS:         39  HIT %:    99.9999  MISS %: 0.000106813   MPKI: 0.000194804
L1I RFO       ACCESS:          0  HIT:          0  MISS:          0  HIT %:       -nan  MISS %:       -nan   MPKI: 0
L1I PREFETCH  ACCESS:          0  HIT:          0  MISS:          0  HIT %:       -nan  MISS %:       -nan   MPKI: 0
L1I WRITEBACK ACCESS:          0  HIT:          0  MISS:          0  HIT %:       -nan  MISS %:       -nan   MPKI: 0
L2C TOTAL     ACCESS:   26420333  HIT:   19925671  MISS:    6494662  HIT %:    75.4179  MISS %:    24.5821   MPKI: 32.4407
L2C LOAD      ACCESS:    4098418  HIT:    1818405  MISS:    2280013  HIT %:    44.3685  MISS %:    55.6315   MPKI: 11.3886
L2C RFO       ACCESS:    1597642  HIT:          2  MISS:    1597640  HIT %: 0.000125184  MISS %:    99.9999   MPKI: 7.98019
L2C PREFETCH  ACCESS:   14724580  HIT:   12575689  MISS:    2148891  HIT %:    85.4061  MISS %:    14.5939   MPKI: 10.7337
L2C WRITEBACK ACCESS:    4970993  HIT:    4604101  MISS:     366892  HIT %:    92.6193  MISS %:    7.38066   MPKI: 1.83262
PSCL5 TOTAL     ACCESS:    1027432  HIT:    1027432  MISS:          0  HIT %:        100  MISS %:          0   MPKI: 0
PSCL5 LOAD      ACCESS:          0  HIT:          0  MISS:          0  HIT %:       -nan  MISS %:       -nan   MPKI: 0
PSCL5 RFO       ACCESS:          0  HIT:          0  MISS:          0  HIT %:       -nan  MISS %:       -nan   MPKI: 0
PSCL5 PREFETCH  ACCESS:          0  HIT:          0  MISS:          0  HIT %:       -nan  MISS %:       -nan   MPKI: 0
PSCL5 WRITEBACK ACCESS:          0  HIT:          0  MISS:          0  HIT %:       -nan  MISS %:       -nan   MPKI: 0
PSCL4 TOTAL     ACCESS:    1027432  HIT:    1027432  MISS:          0  HIT %:        100  MISS %:          0   MPKI: 0
PSCL4 LOAD      ACCESS:          0  HIT:          0  MISS:          0  HIT %:       -nan  MISS %:       -nan   MPKI: 0
PSCL4 RFO       ACCESS:          0  HIT:          0  MISS:          0  HIT %:       -nan  MISS %:       -nan   MPKI: 0
PSCL4 PREFETCH  ACCESS:          0  HIT:          0  MISS:          0  HIT %:       -nan  MISS %:       -nan   MPKI: 0
PSCL4 WRITEBACK ACCESS:          0  HIT:          0  MISS:          0  HIT %:       -nan  MISS %:       -nan   MPKI: 0
PSCL3 TOTAL     ACCESS:    1027432  HIT:    1027432  MISS:          0  HIT %:        100  MISS %:          0   MPKI: 0
PSCL3 LOAD      ACCESS:          0  HIT:          0  MISS:          0  HIT %:       -nan  MISS %:       -nan   MPKI: 0
PSCL3 RFO       ACCESS:          0  HIT:          0  MISS:          0  HIT %:       -nan  MISS %:       -nan   MPKI: 0
PSCL3 PREFETCH  ACCESS:          0  HIT:          0  MISS:          0  HIT %:       -nan  MISS %:       -nan   MPKI: 0
PSCL3 WRITEBACK ACCESS:          0  HIT:          0  MISS:          0  HIT %:       -nan  MISS %:       -nan   MPKI: 0
PSCL2 TOTAL     ACCESS:    1024784  HIT:    1024614  MISS:        170  HIT %:    99.9834  MISS %:  0.0165889   MPKI: 0.000849147
PSCL2 LOAD      ACCESS:          0  HIT:          0  MISS:          0  HIT %:       -nan  MISS %:       -nan   MPKI: 0
PSCL2 RFO       ACCESS:          0  HIT:          0  MISS:          0  HIT %:       -nan  MISS %:       -nan   MPKI: 0
PSCL2 PREFETCH  ACCESS:          0  HIT:          0  MISS:          0  HIT %:       -nan  MISS %:       -nan   MPKI: 0
PSCL2 WRITEBACK ACCESS:          0  HIT:          0  MISS:          0  HIT %:       -nan  MISS %:       -nan   MPKI: 0
LLC TOTAL     ACCESS:    9746814  HIT:    4848405  MISS:    4898409  HIT %:    49.7435  MISS %:    50.2565   MPKI: 24.4675
LLC LOAD      ACCESS:    2060470  HIT:    1172158  MISS:     888312  HIT %:    56.8879  MISS %:    43.1121   MPKI: 4.43711
LLC RFO       ACCESS:    1597640  HIT:          5  MISS:    1597635  HIT %: 0.000312962  MISS %:    99.9997   MPKI: 7.98016
LLC PREFETCH  ACCESS:    2368402  HIT:      39366  MISS:    2329036  HIT %:    1.66213  MISS %:    98.3379   MPKI: 11.6335
LLC WRITEBACK ACCESS:    3619076  HIT:    3549497  MISS:      69579  HIT %:    98.0774  MISS %:    1.92256   MPKI: 0.347546

RAW hits: 19035697
Loads Generated: 82717645
Loads sent to L1D: 63681948
Stores Generated: 32957188
Stores sent to L1D: 32957175

Region of Interest Statistics

CPU 0 cumulative IPC: 0.309231 instructions: 200000001 cycles: 646764820
ITLB TOTAL     ACCESS:   28430262  HIT:   28430259  MISS:          3  HIT %:        100  MISS %: 1.05521e-05   MPKI: 1.5e-05
ITLB LOAD TRANSLATION ACCESS:   28430262  HIT:   28430259  MISS:          3  HIT %:        100  MISS %: 1.05521e-05   MPKI: 1.5e-05
ITLB PREFETCH  REQUESTED:          0  ISSUED:          0  USEFUL:          0  USELESS:          0
ITLB USEFUL LOAD PREFETCHES:          0 PREFETCH ISSUED TO LOWER LEVEL:          0  ACCURACY: -nan
ITLB TIMELY PREFETCHES:          0 LATE PREFETCHES: 0 DROPPED PREFETCHES: 0
ITLB PREFETCHES SAME FILL-ORIGIN LEVEL: 0 DIFFERENT FILL-ORIGIN LEVEL: 0
ITLB AVERAGE MISS LATENCY: 709.333 cycles
ITLB RQ	ACCESS:   36478132	FORWARD:          0	MERGED:    8047869	TO_CACHE:   28430263

DTLB TOTAL     ACCESS:   52199827  HIT:   49742057  MISS:    2457770  HIT %:    95.2916  MISS %:    4.70839   MPKI: 12.2888
DTLB LOAD TRANSLATION ACCESS:   52199827  HIT:   49742057  MISS:    2457770  HIT %:    95.2916  MISS %:    4.70839   MPKI: 12.2888
DTLB PREFETCH  REQUESTED:          0  ISSUED:          0  USEFUL:          0  USELESS:          0
DTLB USEFUL LOAD PREFETCHES:          0 PREFETCH ISSUED TO LOWER LEVEL:          0  ACCURACY: -nan
DTLB TIMELY PREFETCHES:          0 LATE PREFETCHES: 0 DROPPED PREFETCHES: 0
DTLB PREFETCHES SAME FILL-ORIGIN LEVEL: 0 DIFFERENT FILL-ORIGIN LEVEL: 0
DTLB AVERAGE MISS LATENCY: 20.6349 cycles
DTLB RQ	ACCESS:   68812317	FORWARD:          0	MERGED:   16424240	TO_CACHE:   52388077

STLB TOTAL     ACCESS:   13807244  HIT:   13482457  MISS:     324787  HIT %:    97.6477  MISS %:    2.35229   MPKI: 1.62393
STLB LOAD TRANSLATION ACCESS:    2457773  HIT:    2141379  MISS:     316394  HIT %:    87.1268  MISS %:    12.8732   MPKI: 1.58197
STLB TRANSLATION FROM L1D PREFETCHER ACCESS:   11349471  HIT:   11341078  MISS:       8393  HIT %:     99.926  MISS %:  0.0739506   MPKI: 0.041965
STLB PREFETCH  REQUESTED:          0  ISSUED:          0  USEFUL:       8270  USELESS:        122
STLB USEFUL LOAD PREFETCHES:       8270 PREFETCH ISSUED TO LOWER LEVEL:          0  ACCURACY: inf
STLB TIMELY PREFETCHES:       8270 LATE PREFETCHES: 8257 DROPPED PREFETCHES: 688931
STLB PREFETCHES SAME FILL-ORIGIN LEVEL: 0 DIFFERENT FILL-ORIGIN LEVEL: 0
STLB AVERAGE MISS LATENCY: 89.0457 cycles
STLB RQ	ACCESS:   58224859	FORWARD:          0	MERGED:   43636478	TO_CACHE:   14588381

STLB Hit, L1D data hit: 0
STLB Hit, L2C data hit: 0
STLB Hit, LLC data hit: 0
STLB Hit, LLC data miss: 0
STLB STLB hints to L2: 0
L1D TOTAL     ACCESS:   84514316  HIT:   77198779  MISS:    7315537  HIT %:     91.344  MISS %:    8.65597   MPKI: 36.5777
L1D LOAD      ACCESS:   35160903  HIT:   30753868  MISS:    4407035  HIT %:    87.4661  MISS %:    12.5339   MPKI: 22.0352
L1D RFO       ACCESS:   17269707  HIT:   15675630  MISS:    1594077  HIT %:    90.7695  MISS %:    9.23048   MPKI: 7.97038
L1D PREFETCH  ACCESS:   32083706  HIT:   30769281  MISS:    1314425  HIT %:    95.9031  MISS %:    4.09686   MPKI: 6.57212
L1D PREFETCH  REQUESTED:  137512110  ISSUED:  134248388  USEFUL:    1266024  USELESS:      48388
L1D USEFUL LOAD PREFETCHES:    1266024 PREFETCH ISSUED TO LOWER LEVEL:   17728352  ACCURACY: 7.14124
L1D TIMELY PREFETCHES:    1266024 LATE PREFETCHES: 314301 DROPPED PREFETCHES: 2054184
L1D PREFETCHES SAME FILL-ORIGIN LEVEL: 1628970 DIFFERENT FILL-ORIGIN LEVEL: 16099382
L1D AVERAGE MISS LATENCY: 453.202 cycles
L1D RQ	ACCESS:   63653265	FORWARD:          0	MERGED:   27667015	TO_CACHE:   35906572
L1D WQ	ACCESS:   32928494	FORWARD:      79678	MERGED:      22749	TO_CACHE:   32905745
L1D PQ	ACCESS:   78481302	FORWARD:          0	MERGED:   22714216	TO_CACHE:   55767086

L1D UNIQUE REGIONS ACCESSED: 0
L1D REGIONS CONFLICTS: 0
L1D Cross Page Prefetch Requests: 10342437
L1D Same Page Prefetch Requests: 122492332
L1D ROI Sum of L1D PQ occupancy: 1396111760
L1D PREFETCHES PUSHED FROM L2C: 0
L1I TOTAL     ACCESS:   36478123  HIT:   36478084  MISS:         39  HIT %:    99.9999  MISS %: 0.000106913   MPKI: 0.000195
L1I LOAD      ACCESS:   36478123  HIT:   36478084  MISS:         39  HIT %:    99.9999  MISS %: 0.000106913   MPKI: 0.000195
L1I PREFETCH  REQUESTED:          0  ISSUED:          0  USEFUL:          0  USELESS:          0
L1I USEFUL LOAD PREFETCHES:          0 PREFETCH ISSUED TO LOWER LEVEL:          0  ACCURACY: -nan
L1I TIMELY PREFETCHES:          0 LATE PREFETCHES: 0 DROPPED PREFETCHES: 0
L1I PREFETCHES SAME FILL-ORIGIN LEVEL: 0 DIFFERENT FILL-ORIGIN LEVEL: 0
L1I AVERAGE MISS LATENCY: 383.718 cycles
L1I RQ	ACCESS:   52061947	FORWARD:          0	MERGED:   15583815	TO_CACHE:   36478132

BTB TOTAL     ACCESS:   11430780  HIT:   11430641  MISS:        139  HIT %:    99.9988  MISS %: 0.00121602   MPKI: 0.000695
BTB BRANCH_DIRECT_JUMP	ACCESS:        220  HIT:        196  MISS:         24
BTB BRANCH_INDIRECT	ACCESS:          0  HIT:          0  MISS:          0
BTB BRANCH_CONDITIONAL	ACCESS:   11430519  HIT:   11430433  MISS:         86
BTB BRANCH_DIRECT_CALL	ACCESS:         20  HIT:          6  MISS:         14
BTB BRANCH_INDIRECT_CALL	ACCESS:          0  HIT:          0  MISS:          0
BTB BRANCH_RETURN	ACCESS:         21  HIT:          6  MISS:         15
BTB BRANCH_OTHER ACCESS:          0  HIT:          0  MISS:          0

L2C TOTAL     ACCESS:   26040668  HIT:   19547078  MISS:    6493590  HIT %:    75.0637  MISS %:    24.9363   MPKI: 32.4679
L2C LOAD      ACCESS:    4092671  HIT:    1813796  MISS:    2278875  HIT %:    44.3181  MISS %:    55.6819   MPKI: 11.3944
L2C DATA LOAD MPKI: 11.3942
L2C INSTRUCTION LOAD MPKI: 0.000195
L2C RFO       ACCESS:    1594077  HIT:          0  MISS:    1594077  HIT %:          0  MISS %:        100   MPKI: 7.97038
L2C PREFETCH  ACCESS:   14362982  HIT:   12214973  MISS:    2148009  HIT %:    85.0448  MISS %:    14.9552   MPKI: 10.74
L2C DATA PREFETCH MPKI: 10.74
L2C INSTRUCTION PREFETCH MPKI: 0
L2C WRITEBACK ACCESS:    4967729  HIT:    4598299  MISS:     369430  HIT %:    92.5634  MISS %:     7.4366   MPKI: 1.84715
L2C LOAD TRANSLATION ACCESS:     316398  HIT:     218412  MISS:      97986  HIT %:    69.0308  MISS %:    30.9692   MPKI: 0.48993
L2C TRANSLATION FROM L1D PREFETCHER ACCESS:     706811  HIT:     701598  MISS:       5213  HIT %:    99.2625  MISS %:   0.737538   MPKI: 0.026065
L2C PREFETCH  REQUESTED:          0  ISSUED:          0  USEFUL:     458656  USELESS:    1694586
L2C USEFUL LOAD PREFETCHES:     458656 PREFETCH ISSUED TO LOWER LEVEL:    2364966  ACCURACY: 19.3938
L2C TIMELY PREFETCHES:     458656 LATE PREFETCHES: 216957 DROPPED PREFETCHES: 0
L2C PREFETCHES SAME FILL-ORIGIN LEVEL: 1736117 DIFFERENT FILL-ORIGIN LEVEL: 0
L2C AVERAGE MISS LATENCY: 769.329 cycles
L2C RQ	ACCESS:    6710061	FORWARD:          0	MERGED:          0	TO_CACHE:    6709959
L2C WQ	ACCESS:    4967729	FORWARD:        103	MERGED:          0	TO_CACHE:    4967729
L2C PQ	ACCESS:   17724208	FORWARD:          0	MERGED:     145542	TO_CACHE:   17578665

L2C Instructions Evicting Data 39
L2C Translations Evicting Data 98185
L2C Data Evicting Data 5931046
L2C Instructions Evicting Instructions 0
L2C Translations Evicting Instructions 1
L2C Data Evicting Instructions 36
L2C Instructions Evicting Translations 0
L2C Translations Evicting Translations 5013
L2C Data Evicting Translations 89840
L2C Dense regions hint from L2: 0
PSCL5 TOTAL     ACCESS:    1021950  HIT:    1021950  MISS:          0  HIT %:        100  MISS %:          0   MPKI: 0
PSCL5 LOAD TRANSLATION ACCESS:     316369  HIT:     316369  MISS:          0  HIT %:        100  MISS %:          0   MPKI: 0
PSCL5 TRANSLATION FROM L1D PREFETCHER ACCESS:     705581  HIT:     705581  MISS:          0  HIT %:        100  MISS %:          0   MPKI: 0
PSCL5 PREFETCH  REQUESTED:          0  ISSUED:          0  USEFUL:          0  USELESS:          0
PSCL5 USEFUL LOAD PREFETCHES:          0 PREFETCH ISSUED TO LOWER LEVEL:          0  ACCURACY: -nan
PSCL5 TIMELY PREFETCHES:          0 LATE PREFETCHES: 0 DROPPED PREFETCHES: 0
PSCL5 PREFETCHES SAME FILL-ORIGIN LEVEL: 0 DIFFERENT FILL-ORIGIN LEVEL: 0

PSCL4 TOTAL     ACCESS:    1021950  HIT:    1021950  MISS:          0  HIT %:        100  MISS %:          0   MPKI: 0
PSCL4 LOAD TRANSLATION ACCESS:     316369  HIT:     316369  MISS:          0  HIT %:        100  MISS %:          0   MPKI: 0
PSCL4 TRANSLATION FROM L1D PREFETCHER ACCESS:     705581  HIT:     705581  MISS:          0  HIT %:        100  MISS %:          0   MPKI: 0
PSCL4 PREFETCH  REQUESTED:          0  ISSUED:          0  USEFUL:          0  USELESS:          0
PSCL4 USEFUL LOAD PREFETCHES:          0 PREFETCH ISSUED TO LOWER LEVEL:          0  ACCURACY: -nan
PSCL4 TIMELY PREFETCHES:          0 LATE PREFETCHES: 0 DROPPED PREFETCHES: 0
PSCL4 PREFETCHES SAME FILL-ORIGIN LEVEL: 0 DIFFERENT FILL-ORIGIN LEVEL: 0

PSCL3 TOTAL     ACCESS:    1021950  HIT:    1021950  MISS:          0  HIT %:        100  MISS %:          0   MPKI: 0
PSCL3 LOAD TRANSLATION ACCESS:     316369  HIT:     316369  MISS:          0  HIT %:        100  MISS %:          0   MPKI: 0
PSCL3 TRANSLATION FROM L1D PREFETCHER ACCESS:     705581  HIT:     705581  MISS:          0  HIT %:        100  MISS %:          0   MPKI: 0
PSCL3 PREFETCH  REQUESTED:          0  ISSUED:          0  USEFUL:          0  USELESS:          0
PSCL3 USEFUL LOAD PREFETCHES:          0 PREFETCH ISSUED TO LOWER LEVEL:          0  ACCURACY: -nan
PSCL3 TIMELY PREFETCHES:          0 LATE PREFETCHES: 0 DROPPED PREFETCHES: 0
PSCL3 PREFETCHES SAME FILL-ORIGIN LEVEL: 0 DIFFERENT FILL-ORIGIN LEVEL: 0

PSCL2 TOTAL     ACCESS:    1018702  HIT:    1018532  MISS:        170  HIT %:    99.9833  MISS %:  0.0166879   MPKI: 0.00085
PSCL2 LOAD TRANSLATION ACCESS:     316382  HIT:     316212  MISS:        170  HIT %:    99.9463  MISS %:  0.0537325   MPKI: 0.00085
PSCL2 TRANSLATION FROM L1D PREFETCHER ACCESS:     702320  HIT:     702320  MISS:          0  HIT %:        100  MISS %:          0   MPKI: 0
PSCL2 PREFETCH  REQUESTED:          0  ISSUED:          0  USEFUL:          0  USELESS:          0
PSCL2 USEFUL LOAD PREFETCHES:          0 PREFETCH ISSUED TO LOWER LEVEL:          0  ACCURACY: -nan
PSCL2 TIMELY PREFETCHES:          0 LATE PREFETCHES: 0 DROPPED PREFETCHES: 0
PSCL2 PREFETCHES SAME FILL-ORIGIN LEVEL: 0 DIFFERENT FILL-ORIGIN LEVEL: 0

LLC TOTAL     ACCESS:    9740193  HIT:    4845546  MISS:    4894647  HIT %:    49.7479  MISS %:    50.2521   MPKI: 24.4732
LLC LOAD      ACCESS:    2061895  HIT:    1170785  MISS:     891110  HIT %:     56.782  MISS %:     43.218   MPKI: 4.45555
LLC RFO       ACCESS:    1594077  HIT:          0  MISS:    1594077  HIT %:          0  MISS %:        100   MPKI: 7.97038
LLC PREFETCH  ACCESS:    2364964  HIT:      37781  MISS:    2327183  HIT %:    1.59753  MISS %:    98.4025   MPKI: 11.6359
LLC WRITEBACK ACCESS:    3616058  HIT:    3547403  MISS:      68655  HIT %:    98.1014  MISS %:    1.89861   MPKI: 0.343275
LLC LOAD TRANSLATION ACCESS:      97986  HIT:      89112  MISS:       8874  HIT %:    90.9436  MISS %:     9.0564   MPKI: 0.04437
LLC TRANSLATION FROM L1D PREFETCHER ACCESS:       5213  HIT:        465  MISS:       4748  HIT %:    8.92001  MISS %:      91.08   MPKI: 0.02374
LLC PREFETCH  REQUESTED:          0  ISSUED:          0  USEFUL:      31769  USELESS:    9321718
LLC USEFUL LOAD PREFETCHES:      31769 PREFETCH ISSUED TO LOWER LEVEL:  299701292  ACCURACY: 0.0106002
LLC TIMELY PREFETCHES:      31769 LATE PREFETCHES: 0 DROPPED PREFETCHES: 0
LLC PREFETCHES SAME FILL-ORIGIN LEVEL: 0 DIFFERENT FILL-ORIGIN LEVEL: 0
LLC AVERAGE MISS LATENCY: 3958.73 cycles
LLC RQ	ACCESS:   15114614	FORWARD:          0	MERGED:          0	TO_CACHE:   15114503
LLC WQ	ACCESS:   14551439	FORWARD:        116	MERGED:          0	TO_CACHE:   14551439
LLC PQ	ACCESS:    9482664	FORWARD:          0	MERGED:          0	TO_CACHE:    9482659

LLC Dense regions hint to LLC: 0

RAW hits: 19035699
Loads Generated: 82688966
Loads sent to L1D: 63653265
Stores Generated: 32928510
Stores sent to L1D: 32928494
Major fault: 0 Minor fault: 67359
Allocated PAGES: 269436

CPU 1 cumulative IPC: 0.311352 instructions: 200000001 cycles: 642358769
ITLB TOTAL     ACCESS:   28421326  HIT:   28421323  MISS:          3  HIT %:        100  MISS %: 1.05555e-05   MPKI: 1.5e-05
ITLB LOAD TRANSLATION ACCESS:   28421326  HIT:   28421323  MISS:          3  HIT %:        100  MISS %: 1.05555e-05   MPKI: 1.5e-05
ITLB PREFETCH  REQUESTED:          0  ISSUED:          0  USEFUL:          0  USELESS:          0
ITLB USEFUL LOAD PREFETCHES:          0 PREFETCH ISSUED TO LOWER LEVEL:          0  ACCURACY: -nan
ITLB TIMELY PREFETCHES:          0 LATE PREFETCHES: 0 DROPPED PREFETCHES: 0
ITLB PREFETCHES SAME FILL-ORIGIN LEVEL: 0 DIFFERENT FILL-ORIGIN LEVEL: 0
ITLB AVERAGE MISS LATENCY: 823.333 cycles
ITLB RQ	ACCESS:   37021214	FORWARD:          0	MERGED:    8048794	TO_CACHE:   28972420

DTLB TOTAL     ACCESS:   52197501  HIT:   49739740  MISS:    2457761  HIT %:    95.2914  MISS %:    4.70858   MPKI: 12.2888
DTLB LOAD TRANSLATION ACCESS:   52197501  HIT:   49739740  MISS:    2457761  HIT %:    95.2914  MISS %:    4.70858   MPKI: 12.2888
DTLB PREFETCH  REQUESTED:          0  ISSUED:          0  USEFUL:          0  USELESS:          0
DTLB USEFUL LOAD PREFETCHES:          0 PREFETCH ISSUED TO LOWER LEVEL:          0  ACCURACY: -nan
DTLB TIMELY PREFETCHES:          0 LATE PREFETCHES: 0 DROPPED PREFETCHES: 0
DTLB PREFETCHES SAME FILL-ORIGIN LEVEL: 0 DIFFERENT FILL-ORIGIN LEVEL: 0
DTLB AVERAGE MISS LATENCY: 20.5211 cycles
DTLB RQ	ACCESS:   69304651	FORWARD:          0	MERGED:   16439557	TO_CACHE:   52865094

STLB TOTAL     ACCESS:   13973024  HIT:   13648208  MISS:     324816  HIT %:    97.6754  MISS %:    2.32459   MPKI: 1.62408
STLB LOAD TRANSLATION ACCESS:    2457764  HIT:    2141318  MISS:     316446  HIT %:    87.1246  MISS %:    12.8754   MPKI: 1.58223
STLB TRANSLATION FROM L1D PREFETCHER ACCESS:   11515260  HIT:   11506890  MISS:       8370  HIT %:    99.9273  MISS %:  0.0726862   MPKI: 0.04185
STLB PREFETCH  REQUESTED:          0  ISSUED:          0  USEFUL:       8375  USELESS:        121
STLB USEFUL LOAD PREFETCHES:       8375 PREFETCH ISSUED TO LOWER LEVEL:          0  ACCURACY: inf
STLB TIMELY PREFETCHES:       8375 LATE PREFETCHES: 8275 DROPPED PREFETCHES: 700761
STLB PREFETCHES SAME FILL-ORIGIN LEVEL: 0 DIFFERENT FILL-ORIGIN LEVEL: 0
STLB AVERAGE MISS LATENCY: 88.1882 cycles
STLB RQ	ACCESS:   59215860	FORWARD:          0	MERGED:   44358181	TO_CACHE:   14857679

STLB Hit, L1D data hit: 0
STLB Hit, L2C data hit: 0
STLB Hit, LLC data hit: 0
STLB Hit, LLC data miss: 0
STLB STLB hints to L2: 0
L1D TOTAL     ACCESS:   84579307  HIT:   77264252  MISS:    7315055  HIT %:    91.3512  MISS %:    8.64875   MPKI: 36.5753
L1D LOAD      ACCESS:   35160348  HIT:   30752648  MISS:    4407700  HIT %:     87.464  MISS %:     12.536   MPKI: 22.0385
L1D RFO       ACCESS:   17270375  HIT:   15676298  MISS:    1594077  HIT %:    90.7699  MISS %:    9.23012   MPKI: 7.97038
L1D PREFETCH  ACCESS:   32148584  HIT:   30835306  MISS:    1313278  HIT %:     95.915  MISS %:    4.08503   MPKI: 6.56639
L1D PREFETCH  REQUESTED:  140256820  ISSUED:  136879999  USEFUL:    1268276  USELESS:      48327
L1D USEFUL LOAD PREFETCHES:    1268276 PREFETCH ISSUED TO LOWER LEVEL:   18346348  ACCURACY: 6.91296
L1D TIMELY PREFETCHES:    1268276 LATE PREFETCHES: 311757 DROPPED PREFETCHES: 2111167
L1D PREFETCHES SAME FILL-ORIGIN LEVEL: 1628357 DIFFERENT FILL-ORIGIN LEVEL: 16717991
L1D AVERAGE MISS LATENCY: 458.691 cycles
L1D RQ	ACCESS:   64176856	FORWARD:          0	MERGED:   28027305	TO_CACHE:   36069857
L1D WQ	ACCESS:   33257494	FORWARD:      79694	MERGED:      22700	TO_CACHE:   33234794
L1D PQ	ACCESS:   80122691	FORWARD:          0	MERGED:   23365383	TO_CACHE:   56757308

L1D UNIQUE REGIONS ACCESSED: 0
L1D REGIONS CONFLICTS: 0
L1D Cross Page Prefetch Requests: 10494301
L1D Same Page Prefetch Requests: 123977084
L1D ROI Sum of L1D PQ occupancy: 1416073997
L1D PREFETCHES PUSHED FROM L2C: 0
L1I TOTAL     ACCESS:   36470044  HIT:   36470005  MISS:         39  HIT %:    99.9999  MISS %: 0.000106937   MPKI: 0.000195
L1I LOAD      ACCESS:   36470044  HIT:   36470005  MISS:         39  HIT %:    99.9999  MISS %: 0.000106937   MPKI: 0.000195
L1I PREFETCH  REQUESTED:          0  ISSUED:          0  USEFUL:          0  USELESS:          0
L1I USEFUL LOAD PREFETCHES:          0 PREFETCH ISSUED TO LOWER LEVEL:          0  ACCURACY: -nan
L1I TIMELY PREFETCHES:          0 LATE PREFETCHES: 0 DROPPED PREFETCHES: 0
L1I PREFETCHES SAME FILL-ORIGIN LEVEL: 0 DIFFERENT FILL-ORIGIN LEVEL: 0
L1I AVERAGE MISS LATENCY: 436.923 cycles
L1I RQ	ACCESS:   53039906	FORWARD:          0	MERGED:   16018692	TO_CACHE:   37021214

BTB TOTAL     ACCESS:   11430779  HIT:   11430639  MISS:        140  HIT %:    99.9988  MISS %: 0.00122476   MPKI: 0.0007
BTB BRANCH_DIRECT_JUMP	ACCESS:        220  HIT:        196  MISS:         24
BTB BRANCH_INDIRECT	ACCESS:          0  HIT:          0  MISS:          0
BTB BRANCH_CONDITIONAL	ACCESS:   11430518  HIT:   11430431  MISS:         87
BTB BRANCH_DIRECT_CALL	ACCESS:         20  HIT:          6  MISS:         14
BTB BRANCH_INDIRECT_CALL	ACCESS:          0  HIT:          0  MISS:          0
BTB BRANCH_RETURN	ACCESS:         21  HIT:          6  MISS:         15
BTB BRANCH_OTHER ACCESS:          0  HIT:          0  MISS:          0

L2C TOTAL     ACCESS:   26550923  HIT:   20058575  MISS:    6492348  HIT %:    75.5476  MISS %:    24.4524   MPKI: 32.4617
L2C LOAD      ACCESS:    4096105  HIT:    1818306  MISS:    2277799  HIT %:    44.3911  MISS %:    55.6089   MPKI: 11.389
L2C DATA LOAD MPKI: 11.3888
L2C INSTRUCTION LOAD MPKI: 0.000195
L2C RFO       ACCESS:    1594077  HIT:          0  MISS:    1594077  HIT %:          0  MISS %:        100   MPKI: 7.97038
L2C PREFETCH  ACCESS:   14858304  HIT:   12707306  MISS:    2150998  HIT %:    85.5233  MISS %:    14.4767   MPKI: 10.755
L2C DATA PREFETCH MPKI: 10.755
L2C INSTRUCTION PREFETCH MPKI: 0
L2C WRITEBACK ACCESS:    4967334  HIT:    4598695  MISS:     368639  HIT %:    92.5787  MISS %:    7.42126   MPKI: 1.84319
L2C LOAD TRANSLATION ACCESS:     316453  HIT:     220925  MISS:      95528  HIT %:    69.8129  MISS %:    30.1871   MPKI: 0.47764
L2C TRANSLATION FROM L1D PREFETCHER ACCESS:     718650  HIT:     713343  MISS:       5307  HIT %:    99.2615  MISS %:   0.738468   MPKI: 0.026535
L2C PREFETCH  REQUESTED:          0  ISSUED:          0  USEFUL:     467407  USELESS:    1696001
L2C USEFUL LOAD PREFETCHES:     467407 PREFETCH ISSUED TO LOWER LEVEL:    2376609  ACCURACY: 19.667
L2C TIMELY PREFETCHES:     467407 LATE PREFETCHES: 218015 DROPPED PREFETCHES: 0
L2C PREFETCHES SAME FILL-ORIGIN LEVEL: 1747384 DIFFERENT FILL-ORIGIN LEVEL: 0
L2C AVERAGE MISS LATENCY: 776.843 cycles
L2C RQ	ACCESS:    6771919	FORWARD:          0	MERGED:          0	TO_CACHE:    6771813
L2C WQ	ACCESS:    5009072	FORWARD:        109	MERGED:          0	TO_CACHE:    5009072
L2C PQ	ACCESS:   18345035	FORWARD:          0	MERGED:     147727	TO_CACHE:   18197305

L2C Instructions Evicting Data 39
L2C Translations Evicting Data 99963
L2C Data Evicting Data 5979890
L2C Instructions Evicting Instructions 0
L2C Translations Evicting Instructions 0
L2C Data Evicting Instructions 39
L2C Instructions Evicting Translations 0
L2C Translations Evicting Translations 986
L2C Data Evicting Translations 92244
L2C Dense regions hint from L2: 0
PSCL5 TOTAL     ACCESS:    1033831  HIT:    1033831  MISS:          0  HIT %:        100  MISS %:          0   MPKI: 0
PSCL5 LOAD TRANSLATION ACCESS:     316425  HIT:     316425  MISS:          0  HIT %:        100  MISS %:          0   MPKI: 0
PSCL5 TRANSLATION FROM L1D PREFETCHER ACCESS:     717406  HIT:     717406  MISS:          0  HIT %:        100  MISS %:          0   MPKI: 0
PSCL5 PREFETCH  REQUESTED:          0  ISSUED:          0  USEFUL:          0  USELESS:          0
PSCL5 USEFUL LOAD PREFETCHES:          0 PREFETCH ISSUED TO LOWER LEVEL:          0  ACCURACY: -nan
PSCL5 TIMELY PREFETCHES:          0 LATE PREFETCHES: 0 DROPPED PREFETCHES: 0
PSCL5 PREFETCHES SAME FILL-ORIGIN LEVEL: 0 DIFFERENT FILL-ORIGIN LEVEL: 0

PSCL4 TOTAL     ACCESS:    1033831  HIT:    1033831  MISS:          0  HIT %:        100  MISS %:          0   MPKI: 0
PSCL4 LOAD TRANSLATION ACCESS:     316425  HIT:     316425  MISS:          0  HIT %:        100  MISS %:          0   MPKI: 0
PSCL4 TRANSLATION FROM L1D PREFETCHER ACCESS:     717406  HIT:     717406  MISS:          0  HIT %:        100  MISS %:          0   MPKI: 0
PSCL4 PREFETCH  REQUESTED:          0  ISSUED:          0  USEFUL:          0  USELESS:          0
PSCL4 USEFUL LOAD PREFETCHES:          0 PREFETCH ISSUED TO LOWER LEVEL:          0  ACCURACY: -nan
PSCL4 TIMELY PREFETCHES:          0 LATE PREFETCHES: 0 DROPPED PREFETCHES: 0
PSCL4 PREFETCHES SAME FILL-ORIGIN LEVEL: 0 DIFFERENT FILL-ORIGIN LEVEL: 0

PSCL3 TOTAL     ACCESS:    1033831  HIT:    1033831  MISS:          0  HIT %:        100  MISS %:          0   MPKI: 0
PSCL3 LOAD TRANSLATION ACCESS:     316425  HIT:     316425  MISS:          0  HIT %:        100  MISS %:          0   MPKI: 0
PSCL3 TRANSLATION FROM L1D PREFETCHER ACCESS:     717406  HIT:     717406  MISS:          0  HIT %:        100  MISS %:          0   MPKI: 0
PSCL3 PREFETCH  REQUESTED:          0  ISSUED:          0  USEFUL:          0  USELESS:          0
PSCL3 USEFUL LOAD PREFETCHES:          0 PREFETCH ISSUED TO LOWER LEVEL:          0  ACCURACY: -nan
PSCL3 TIMELY PREFETCHES:          0 LATE PREFETCHES: 0 DROPPED PREFETCHES: 0
PSCL3 PREFETCHES SAME FILL-ORIGIN LEVEL: 0 DIFFERENT FILL-ORIGIN LEVEL: 0

PSCL2 TOTAL     ACCESS:    1031019  HIT:    1030849  MISS:        170  HIT %:    99.9835  MISS %:  0.0164885   MPKI: 0.00085
PSCL2 LOAD TRANSLATION ACCESS:     316438  HIT:     316268  MISS:        170  HIT %:    99.9463  MISS %:   0.053723   MPKI: 0.00085
PSCL2 TRANSLATION FROM L1D PREFETCHER ACCESS:     714581  HIT:     714581  MISS:          0  HIT %:        100  MISS %:          0   MPKI: 0
PSCL2 PREFETCH  REQUESTED:          0  ISSUED:          0  USEFUL:          0  USELESS:          0
PSCL2 USEFUL LOAD PREFETCHES:          0 PREFETCH ISSUED TO LOWER LEVEL:          0  ACCURACY: -nan
PSCL2 TIMELY PREFETCHES:          0 LATE PREFETCHES: 0 DROPPED PREFETCHES: 0
PSCL2 PREFETCHES SAME FILL-ORIGIN LEVEL: 0 DIFFERENT FILL-ORIGIN LEVEL: 0

LLC TOTAL     ACCESS:    9739323  HIT:    4850936  MISS:    4888387  HIT %:    49.8077  MISS %:    50.1923   MPKI: 24.4419
LLC LOAD      ACCESS:    2060317  HIT:    1175291  MISS:     885026  HIT %:    57.0442  MISS %:    42.9558   MPKI: 4.42513
LLC RFO       ACCESS:    1594077  HIT:          0  MISS:    1594077  HIT %:          0  MISS %:        100   MPKI: 7.97038
LLC PREFETCH  ACCESS:    2368445  HIT:      39481  MISS:    2328964  HIT %:    1.66696  MISS %:     98.333   MPKI: 11.6448
LLC WRITEBACK ACCESS:    3615649  HIT:    3548661  MISS:      66988  HIT %:    98.1473  MISS %:    1.85272   MPKI: 0.33494
LLC LOAD TRANSLATION ACCESS:      95528  HIT:      86950  MISS:       8578  HIT %:    91.0204  MISS %:    8.97957   MPKI: 0.04289
LLC TRANSLATION FROM L1D PREFETCHER ACCESS:       5307  HIT:        553  MISS:       4754  HIT %:    10.4202  MISS %:    89.5798   MPKI: 0.02377
LLC PREFETCH  REQUESTED:          0  ISSUED:          0  USEFUL:      31769  USELESS:    9321718
LLC USEFUL LOAD PREFETCHES:      31769 PREFETCH ISSUED TO LOWER LEVEL:  299701292  ACCURACY: 0.0106002
LLC TIMELY PREFETCHES:      31769 LATE PREFETCHES: 0 DROPPED PREFETCHES: 0
LLC PREFETCHES SAME FILL-ORIGIN LEVEL: 0 DIFFERENT FILL-ORIGIN LEVEL: 0
LLC AVERAGE MISS LATENCY: 3963.8 cycles
LLC RQ	ACCESS:   15114614	FORWARD:          0	MERGED:          0	TO_CACHE:   15114503
LLC WQ	ACCESS:   14551439	FORWARD:        116	MERGED:          0	TO_CACHE:   14551439
LLC PQ	ACCESS:    9482664	FORWARD:          0	MERGED:          0	TO_CACHE:    9482659

LLC Dense regions hint to LLC: 0

RAW hits: 19035699
Loads Generated: 82688964
Loads sent to L1D: 63653263
Stores Generated: 32928508
Stores sent to L1D: 32928492
Major fault: 0 Minor fault: 67359
Allocated PAGES: 269436

CPU 2 cumulative IPC: 0.311058 instructions: 200000000 cycles: 642967385
ITLB TOTAL     ACCESS:   28424547  HIT:   28424544  MISS:          3  HIT %:        100  MISS %: 1.05543e-05   MPKI: 1.5e-05
ITLB LOAD TRANSLATION ACCESS:   28424547  HIT:   28424544  MISS:          3  HIT %:        100  MISS %: 1.05543e-05   MPKI: 1.5e-05
ITLB PREFETCH  REQUESTED:          0  ISSUED:          0  USEFUL:          0  USELESS:          0
ITLB USEFUL LOAD PREFETCHES:          0 PREFETCH ISSUED TO LOWER LEVEL:          0  ACCURACY: -nan
ITLB TIMELY PREFETCHES:          0 LATE PREFETCHES: 0 DROPPED PREFETCHES: 0
ITLB PREFETCHES SAME FILL-ORIGIN LEVEL: 0 DIFFERENT FILL-ORIGIN LEVEL: 0
ITLB AVERAGE MISS LATENCY: 1182.33 cycles
ITLB RQ	ACCESS:   36900265	FORWARD:          0	MERGED:    8049281	TO_CACHE:   28850984

DTLB TOTAL     ACCESS:   52199155  HIT:   49741400  MISS:    2457755  HIT %:    95.2916  MISS %:    4.70842   MPKI: 12.2888
DTLB LOAD TRANSLATION ACCESS:   52199155  HIT:   49741400  MISS:    2457755  HIT %:    95.2916  MISS %:    4.70842   MPKI: 12.2888
DTLB PREFETCH  REQUESTED:          0  ISSUED:          0  USEFUL:          0  USELESS:          0
DTLB USEFUL LOAD PREFETCHES:          0 PREFETCH ISSUED TO LOWER LEVEL:          0  ACCURACY: -nan
DTLB TIMELY PREFETCHES:          0 LATE PREFETCHES: 0 DROPPED PREFETCHES: 0
DTLB PREFETCHES SAME FILL-ORIGIN LEVEL: 0 DIFFERENT FILL-ORIGIN LEVEL: 0
DTLB AVERAGE MISS LATENCY: 20.6403 cycles
DTLB RQ	ACCESS:   69242179	FORWARD:          0	MERGED:   16436892	TO_CACHE:   52805287

STLB TOTAL     ACCESS:   13939663  HIT:   13614829  MISS:     324834  HIT %:    97.6697  MISS %:    2.33029   MPKI: 1.62417
STLB LOAD TRANSLATION ACCESS:    2457758  HIT:    2141294  MISS:     316464  HIT %:    87.1239  MISS %:    12.8761   MPKI: 1.58232
STLB TRANSLATION FROM L1D PREFETCHER ACCESS:   11481905  HIT:   11473535  MISS:       8370  HIT %:    99.9271  MISS %:  0.0728973   MPKI: 0.04185
STLB PREFETCH  REQUESTED:          0  ISSUED:          0  USEFUL:       8320  USELESS:        141
STLB USEFUL LOAD PREFETCHES:       8320 PREFETCH ISSUED TO LOWER LEVEL:          0  ACCURACY: inf
STLB TIMELY PREFETCHES:       8320 LATE PREFETCHES: 8401 DROPPED PREFETCHES: 709692
STLB PREFETCHES SAME FILL-ORIGIN LEVEL: 0 DIFFERENT FILL-ORIGIN LEVEL: 0
STLB AVERAGE MISS LATENCY: 89.1844 cycles
STLB RQ	ACCESS:   58569375	FORWARD:          0	MERGED:   43783211	TO_CACHE:   14786164

STLB Hit, L1D data hit: 0
STLB Hit, L2C data hit: 0
STLB Hit, LLC data hit: 0
STLB Hit, LLC data miss: 0
STLB STLB hints to L2: 0
L1D TOTAL     ACCESS:   84295166  HIT:   76980004  MISS:    7315162  HIT %:     91.322  MISS %:    8.67803   MPKI: 36.5758
L1D LOAD      ACCESS:   35159346  HIT:   30747066  MISS:    4412280  HIT %:    87.4506  MISS %:    12.5494   MPKI: 22.0614
L1D RFO       ACCESS:   17271258  HIT:   15677181  MISS:    1594077  HIT %:    90.7703  MISS %:    9.22965   MPKI: 7.97039
L1D PREFETCH  ACCESS:   31864562  HIT:   30555757  MISS:    1308805  HIT %:    95.8926  MISS %:     4.1074   MPKI: 6.54403
L1D PREFETCH  REQUESTED:  138559471  ISSUED:  135237693  USEFUL:    1261419  USELESS:      48320
L1D USEFUL LOAD PREFETCHES:    1261419 PREFETCH ISSUED TO LOWER LEVEL:   18241885  ACCURACY: 6.91496
L1D TIMELY PREFETCHES:    1261419 LATE PREFETCHES: 311533 DROPPED PREFETCHES: 2069551
L1D PREFETCHES SAME FILL-ORIGIN LEVEL: 1621985 DIFFERENT FILL-ORIGIN LEVEL: 16619900
L1D AVERAGE MISS LATENCY: 459.548 cycles
L1D RQ	ACCESS:   64027214	FORWARD:          0	MERGED:   27940033	TO_CACHE:   36007518
L1D WQ	ACCESS:   33257460	FORWARD:      79663	MERGED:      22799	TO_CACHE:   33234661
L1D PQ	ACCESS:   79126827	FORWARD:          0	MERGED:   23015961	TO_CACHE:   56110866

L1D UNIQUE REGIONS ACCESSED: 0
L1D REGIONS CONFLICTS: 0
L1D Cross Page Prefetch Requests: 10388548
L1D Same Page Prefetch Requests: 122743783
L1D ROI Sum of L1D PQ occupancy: 1410184572
L1D PREFETCHES PUSHED FROM L2C: 0
L1I TOTAL     ACCESS:   36473791  HIT:   36473752  MISS:         39  HIT %:    99.9999  MISS %: 0.000106926   MPKI: 0.000195
L1I LOAD      ACCESS:   36473791  HIT:   36473752  MISS:         39  HIT %:    99.9999  MISS %: 0.000106926   MPKI: 0.000195
L1I PREFETCH  REQUESTED:          0  ISSUED:          0  USEFUL:          0  USELESS:          0
L1I USEFUL LOAD PREFETCHES:          0 PREFETCH ISSUED TO LOWER LEVEL:          0  ACCURACY: -nan
L1I TIMELY PREFETCHES:          0 LATE PREFETCHES: 0 DROPPED PREFETCHES: 0
L1I PREFETCHES SAME FILL-ORIGIN LEVEL: 0 DIFFERENT FILL-ORIGIN LEVEL: 0
L1I AVERAGE MISS LATENCY: 398.846 cycles
L1I RQ	ACCESS:   52794375	FORWARD:          0	MERGED:   15894110	TO_CACHE:   36900265

BTB TOTAL     ACCESS:   11430780  HIT:   11430640  MISS:        140  HIT %:    99.9988  MISS %: 0.00122476   MPKI: 0.0007
BTB BRANCH_DIRECT_JUMP	ACCESS:        220  HIT:        196  MISS:         24
BTB BRANCH_INDIRECT	ACCESS:          0  HIT:          0  MISS:          0
BTB BRANCH_CONDITIONAL	ACCESS:   11430519  HIT:   11430432  MISS:         87
BTB BRANCH_DIRECT_CALL	ACCESS:         20  HIT:          6  MISS:         14
BTB BRANCH_INDIRECT_CALL	ACCESS:          0  HIT:          0  MISS:          0
BTB BRANCH_RETURN	ACCESS:         21  HIT:          6  MISS:         15
BTB BRANCH_OTHER ACCESS:          0  HIT:          0  MISS:          0

L2C TOTAL     ACCESS:   26484296  HIT:   19988467  MISS:    6495829  HIT %:    75.4729  MISS %:    24.5271   MPKI: 32.4791
L2C LOAD      ACCESS:    4100807  HIT:    1818462  MISS:    2282345  HIT %:     44.344  MISS %:     55.656   MPKI: 11.4117
L2C DATA LOAD MPKI: 11.4115
L2C INSTRUCTION LOAD MPKI: 0.000195
L2C RFO       ACCESS:    1594077  HIT:          0  MISS:    1594077  HIT %:          0  MISS %:        100   MPKI: 7.97039
L2C PREFETCH  ACCESS:   14777792  HIT:   12629985  MISS:    2147807  HIT %:     85.466  MISS %:     14.534   MPKI: 10.739
L2C DATA PREFETCH MPKI: 10.739
L2C INSTRUCTION PREFETCH MPKI: 0
L2C WRITEBACK ACCESS:    4967451  HIT:    4596698  MISS:     370753  HIT %:    92.5364  MISS %:    7.46365   MPKI: 1.85377
L2C LOAD TRANSLATION ACCESS:     316480  HIT:     220953  MISS:      95527  HIT %:    69.8158  MISS %:    30.1842   MPKI: 0.477635
L2C TRANSLATION FROM L1D PREFETCHER ACCESS:     727689  HIT:     722369  MISS:       5320  HIT %:    99.2689  MISS %:   0.731082   MPKI: 0.0266
L2C PREFETCH  REQUESTED:          0  ISSUED:          0  USEFUL:     469592  USELESS:    1689459
L2C USEFUL LOAD PREFETCHES:     469592 PREFETCH ISSUED TO LOWER LEVEL:    2372684  ACCURACY: 19.7916
L2C TIMELY PREFETCHES:     469592 LATE PREFETCHES: 219666 DROPPED PREFETCHES: 0
L2C PREFETCHES SAME FILL-ORIGIN LEVEL: 1745215 DIFFERENT FILL-ORIGIN LEVEL: 0
L2C AVERAGE MISS LATENCY: 777.398 cycles
L2C RQ	ACCESS:    6785804	FORWARD:          0	MERGED:          0	TO_CACHE:    6785697
L2C WQ	ACCESS:    5009138	FORWARD:        110	MERGED:          0	TO_CACHE:    5009138
L2C PQ	ACCESS:   18238424	FORWARD:          0	MERGED:     150301	TO_CACHE:   18088120

L2C Instructions Evicting Data 39
L2C Translations Evicting Data 98521
L2C Data Evicting Data 5980527
L2C Instructions Evicting Instructions 0
L2C Translations Evicting Instructions 0
L2C Data Evicting Instructions 39
L2C Instructions Evicting Translations 0
L2C Translations Evicting Translations 2426
L2C Data Evicting Translations 90610
L2C Dense regions hint from L2: 0
PSCL5 TOTAL     ACCESS:    1042915  HIT:    1042915  MISS:          0  HIT %:        100  MISS %:          0   MPKI: 0
PSCL5 LOAD TRANSLATION ACCESS:     316452  HIT:     316452  MISS:          0  HIT %:        100  MISS %:          0   MPKI: 0
PSCL5 TRANSLATION FROM L1D PREFETCHER ACCESS:     726463  HIT:     726463  MISS:          0  HIT %:        100  MISS %:          0   MPKI: 0
PSCL5 PREFETCH  REQUESTED:          0  ISSUED:          0  USEFUL:          0  USELESS:          0
PSCL5 USEFUL LOAD PREFETCHES:          0 PREFETCH ISSUED TO LOWER LEVEL:          0  ACCURACY: -nan
PSCL5 TIMELY PREFETCHES:          0 LATE PREFETCHES: 0 DROPPED PREFETCHES: 0
PSCL5 PREFETCHES SAME FILL-ORIGIN LEVEL: 0 DIFFERENT FILL-ORIGIN LEVEL: 0

PSCL4 TOTAL     ACCESS:    1042915  HIT:    1042915  MISS:          0  HIT %:        100  MISS %:          0   MPKI: 0
PSCL4 LOAD TRANSLATION ACCESS:     316452  HIT:     316452  MISS:          0  HIT %:        100  MISS %:          0   MPKI: 0
PSCL4 TRANSLATION FROM L1D PREFETCHER ACCESS:     726463  HIT:     726463  MISS:          0  HIT %:        100  MISS %:          0   MPKI: 0
PSCL4 PREFETCH  REQUESTED:          0  ISSUED:          0  USEFUL:          0  USELESS:          0
PSCL4 USEFUL LOAD PREFETCHES:          0 PREFETCH ISSUED TO LOWER LEVEL:          0  ACCURACY: -nan
PSCL4 TIMELY PREFETCHES:          0 LATE PREFETCHES: 0 DROPPED PREFETCHES: 0
PSCL4 PREFETCHES SAME FILL-ORIGIN LEVEL: 0 DIFFERENT FILL-ORIGIN LEVEL: 0

PSCL3 TOTAL     ACCESS:    1042915  HIT:    1042915  MISS:          0  HIT %:        100  MISS %:          0   MPKI: 0
PSCL3 LOAD TRANSLATION ACCESS:     316452  HIT:     316452  MISS:          0  HIT %:        100  MISS %:          0   MPKI: 0
PSCL3 TRANSLATION FROM L1D PREFETCHER ACCESS:     726463  HIT:     726463  MISS:          0  HIT %:        100  MISS %:          0   MPKI: 0
PSCL3 PREFETCH  REQUESTED:          0  ISSUED:          0  USEFUL:          0  USELESS:          0
PSCL3 USEFUL LOAD PREFETCHES:          0 PREFETCH ISSUED TO LOWER LEVEL:          0  ACCURACY: -nan
PSCL3 TIMELY PREFETCHES:          0 LATE PREFETCHES: 0 DROPPED PREFETCHES: 0
PSCL3 PREFETCHES SAME FILL-ORIGIN LEVEL: 0 DIFFERENT FILL-ORIGIN LEVEL: 0

PSCL2 TOTAL     ACCESS:    1039820  HIT:    1039650  MISS:        170  HIT %:    99.9837  MISS %:   0.016349   MPKI: 0.00085
PSCL2 LOAD TRANSLATION ACCESS:     316466  HIT:     316296  MISS:        170  HIT %:    99.9463  MISS %:  0.0537183   MPKI: 0.00085
PSCL2 TRANSLATION FROM L1D PREFETCHER ACCESS:     723354  HIT:     723354  MISS:          0  HIT %:        100  MISS %:          0   MPKI: 0
PSCL2 PREFETCH  REQUESTED:          0  ISSUED:          0  USEFUL:          0  USELESS:          0
PSCL2 USEFUL LOAD PREFETCHES:          0 PREFETCH ISSUED TO LOWER LEVEL:          0  ACCURACY: -nan
PSCL2 TIMELY PREFETCHES:          0 LATE PREFETCHES: 0 DROPPED PREFETCHES: 0
PSCL2 PREFETCHES SAME FILL-ORIGIN LEVEL: 0 DIFFERENT FILL-ORIGIN LEVEL: 0

LLC TOTAL     ACCESS:    9742802  HIT:    4853064  MISS:    4889738  HIT %:    49.8118  MISS %:    50.1882   MPKI: 24.4487
LLC LOAD      ACCESS:    2063273  HIT:    1177113  MISS:     886160  HIT %:    57.0508  MISS %:    42.9492   MPKI: 4.4308
LLC RFO       ACCESS:    1594077  HIT:          0  MISS:    1594077  HIT %:          0  MISS %:        100   MPKI: 7.97039
LLC PREFETCH  ACCESS:    2366855  HIT:      38756  MISS:    2328099  HIT %:    1.63745  MISS %:    98.3626   MPKI: 11.6405
LLC WRITEBACK ACCESS:    3617750  HIT:    3549995  MISS:      67755  HIT %:    98.1272  MISS %:    1.87285   MPKI: 0.338775
LLC LOAD TRANSLATION ACCESS:      95527  HIT:      86639  MISS:       8888  HIT %:    90.6958  MISS %:    9.30418   MPKI: 0.04444
LLC TRANSLATION FROM L1D PREFETCHER ACCESS:       5320  HIT:        561  MISS:       4759  HIT %:    10.5451  MISS %:    89.4549   MPKI: 0.023795
LLC PREFETCH  REQUESTED:          0  ISSUED:          0  USEFUL:      31769  USELESS:    9321718
LLC USEFUL LOAD PREFETCHES:      31769 PREFETCH ISSUED TO LOWER LEVEL:  299701292  ACCURACY: 0.0106002
LLC TIMELY PREFETCHES:      31769 LATE PREFETCHES: 0 DROPPED PREFETCHES: 0
LLC PREFETCHES SAME FILL-ORIGIN LEVEL: 0 DIFFERENT FILL-ORIGIN LEVEL: 0
LLC AVERAGE MISS LATENCY: 3962.7 cycles
LLC RQ	ACCESS:   15114614	FORWARD:          0	MERGED:          0	TO_CACHE:   15114503
LLC WQ	ACCESS:   14551439	FORWARD:        116	MERGED:          0	TO_CACHE:   14551439
LLC PQ	ACCESS:    9482664	FORWARD:          0	MERGED:          0	TO_CACHE:    9482659

LLC Dense regions hint to LLC: 0

RAW hits: 19035697
Loads Generated: 82688962
Loads sent to L1D: 63653265
Stores Generated: 32928507
Stores sent to L1D: 32928491
Major fault: 0 Minor fault: 67359
Allocated PAGES: 269436

CPU 3 cumulative IPC: 0.309356 instructions: 200000001 cycles: 646504442
ITLB TOTAL     ACCESS:   28431126  HIT:   28431123  MISS:          3  HIT %:        100  MISS %: 1.05518e-05   MPKI: 1.5e-05
ITLB LOAD TRANSLATION ACCESS:   28431126  HIT:   28431123  MISS:          3  HIT %:        100  MISS %: 1.05518e-05   MPKI: 1.5e-05
ITLB PREFETCH  REQUESTED:          0  ISSUED:          0  USEFUL:          0  USELESS:          0
ITLB USEFUL LOAD PREFETCHES:          0 PREFETCH ISSUED TO LOWER LEVEL:          0  ACCURACY: -nan
ITLB TIMELY PREFETCHES:          0 LATE PREFETCHES: 0 DROPPED PREFETCHES: 0
ITLB PREFETCHES SAME FILL-ORIGIN LEVEL: 0 DIFFERENT FILL-ORIGIN LEVEL: 0
ITLB AVERAGE MISS LATENCY: 1990.33 cycles
ITLB RQ	ACCESS:   36512335	FORWARD:          0	MERGED:    8047242	TO_CACHE:   28465093

DTLB TOTAL     ACCESS:   52199698  HIT:   49741961  MISS:    2457737  HIT %:    95.2917  MISS %:    4.70834   MPKI: 12.2887
DTLB LOAD TRANSLATION ACCESS:   52199698  HIT:   49741961  MISS:    2457737  HIT %:    95.2917  MISS %:    4.70834   MPKI: 12.2887
DTLB PREFETCH  REQUESTED:          0  ISSUED:          0  USEFUL:          0  USELESS:          0
DTLB USEFUL LOAD PREFETCHES:          0 PREFETCH ISSUED TO LOWER LEVEL:          0  ACCURACY: -nan
DTLB TIMELY PREFETCHES:          0 LATE PREFETCHES: 0 DROPPED PREFETCHES: 0
DTLB PREFETCHES SAME FILL-ORIGIN LEVEL: 0 DIFFERENT FILL-ORIGIN LEVEL: 0
DTLB AVERAGE MISS LATENCY: 20.7578 cycles
DTLB RQ	ACCESS:   68847984	FORWARD:          0	MERGED:   16426209	TO_CACHE:   52421775

STLB TOTAL     ACCESS:   13905580  HIT:   13580761  MISS:     324819  HIT %:    97.6641  MISS %:    2.33589   MPKI: 1.62409
STLB LOAD TRANSLATION ACCESS:    2457740  HIT:    2141333  MISS:     316407  HIT %:    87.1261  MISS %:    12.8739   MPKI: 1.58203
STLB TRANSLATION FROM L1D PREFETCHER ACCESS:   11447840  HIT:   11439428  MISS:       8412  HIT %:    99.9265  MISS %:  0.0734811   MPKI: 0.04206
STLB PREFETCH  REQUESTED:          0  ISSUED:          0  USEFUL:       8289  USELESS:        130
STLB USEFUL LOAD PREFETCHES:       8289 PREFETCH ISSUED TO LOWER LEVEL:          0  ACCURACY: inf
STLB TIMELY PREFETCHES:       8289 LATE PREFETCHES: 8392 DROPPED PREFETCHES: 694176
STLB PREFETCHES SAME FILL-ORIGIN LEVEL: 0 DIFFERENT FILL-ORIGIN LEVEL: 0
STLB AVERAGE MISS LATENCY: 90.0968 cycles
STLB RQ	ACCESS:   58551431	FORWARD:          0	MERGED:   43856014	TO_CACHE:   14695417

STLB Hit, L1D data hit: 0
STLB Hit, L2C data hit: 0
STLB Hit, LLC data hit: 0
STLB Hit, LLC data miss: 0
STLB STLB hints to L2: 0
L1D TOTAL     ACCESS:   84338272  HIT:   77023519  MISS:    7314753  HIT %:    91.3269  MISS %:    8.67311   MPKI: 36.5738
L1D LOAD      ACCESS:   35159829  HIT:   30747216  MISS:    4412613  HIT %:    87.4498  MISS %:    12.5502   MPKI: 22.0631
L1D RFO       ACCESS:   17272817  HIT:   15678740  MISS:    1594077  HIT %:    90.7712  MISS %:    9.22882   MPKI: 7.97038
L1D PREFETCH  ACCESS:   31905626  HIT:   30597563  MISS:    1308063  HIT %:    95.9002  MISS %:    4.09979   MPKI: 6.54031
L1D PREFETCH  REQUESTED:  138308107  ISSUED:  135023203  USEFUL:    1260265  USELESS:      47866
L1D USEFUL LOAD PREFETCHES:    1260265 PREFETCH ISSUED TO LOWER LEVEL:   18118143  ACCURACY: 6.95582
L1D TIMELY PREFETCHES:    1260265 LATE PREFETCHES: 314538 DROPPED PREFETCHES: 2085884
L1D PREFETCHES SAME FILL-ORIGIN LEVEL: 1622652 DIFFERENT FILL-ORIGIN LEVEL: 16495491
L1D AVERAGE MISS LATENCY: 454.288 cycles
L1D RQ	ACCESS:   63681948	FORWARD:          0	MERGED:   27688745	TO_CACHE:   35913585
L1D WQ	ACCESS:   32957175	FORWARD:      79618	MERGED:      22776	TO_CACHE:   32934399
L1D PQ	ACCESS:   78929577	FORWARD:          0	MERGED:   22835951	TO_CACHE:   56093626

L1D UNIQUE REGIONS ACCESSED: 0
L1D REGIONS CONFLICTS: 0
L1D Cross Page Prefetch Requests: 10406928
L1D Same Page Prefetch Requests: 122732295
L1D ROI Sum of L1D PQ occupancy: 1402286765
L1D PREFETCHES PUSHED FROM L2C: 0
L1I TOTAL     ACCESS:   36478359  HIT:   36478320  MISS:         39  HIT %:    99.9999  MISS %: 0.000106913   MPKI: 0.000195
L1I LOAD      ACCESS:   36478359  HIT:   36478320  MISS:         39  HIT %:    99.9999  MISS %: 0.000106913   MPKI: 0.000195
L1I PREFETCH  REQUESTED:          0  ISSUED:          0  USEFUL:          0  USELESS:          0
L1I USEFUL LOAD PREFETCHES:          0 PREFETCH ISSUED TO LOWER LEVEL:          0  ACCURACY: -nan
L1I TIMELY PREFETCHES:          0 LATE PREFETCHES: 0 DROPPED PREFETCHES: 0
L1I PREFETCHES SAME FILL-ORIGIN LEVEL: 0 DIFFERENT FILL-ORIGIN LEVEL: 0
L1I AVERAGE MISS LATENCY: 506.718 cycles
L1I RQ	ACCESS:   52119909	FORWARD:          0	MERGED:   15607574	TO_CACHE:   36512335

BTB TOTAL     ACCESS:   11430729  HIT:   11430588  MISS:        141  HIT %:    99.9988  MISS %: 0.00123352   MPKI: 0.000705
BTB BRANCH_DIRECT_JUMP	ACCESS:        220  HIT:        196  MISS:         24
BTB BRANCH_INDIRECT	ACCESS:          0  HIT:          0  MISS:          0
BTB BRANCH_CONDITIONAL	ACCESS:   11430468  HIT:   11430380  MISS:         88
BTB BRANCH_DIRECT_CALL	ACCESS:         20  HIT:          6  MISS:         14
BTB BRANCH_INDIRECT_CALL	ACCESS:          0  HIT:          0  MISS:          0
BTB BRANCH_RETURN	ACCESS:         21  HIT:          6  MISS:         15
BTB BRANCH_OTHER ACCESS:          0  HIT:          0  MISS:          0

L2C TOTAL     ACCESS:   26408867  HIT:   19919662  MISS:    6489205  HIT %:    75.4279  MISS %:    24.5721   MPKI: 32.446
L2C LOAD      ACCESS:    4098019  HIT:    1818057  MISS:    2279962  HIT %:    44.3643  MISS %:    55.6357   MPKI: 11.3998
L2C DATA LOAD MPKI: 11.3996
L2C INSTRUCTION LOAD MPKI: 0.000195
L2C RFO       ACCESS:    1594077  HIT:          0  MISS:    1594077  HIT %:          0  MISS %:        100   MPKI: 7.97038
L2C PREFETCH  ACCESS:   14720641  HIT:   12572156  MISS:    2148485  HIT %:    85.4049  MISS %:    14.5951   MPKI: 10.7424
L2C DATA PREFETCH MPKI: 10.7424
L2C INSTRUCTION PREFETCH MPKI: 0
L2C WRITEBACK ACCESS:    4967493  HIT:    4602029  MISS:     365464  HIT %:    92.6429  MISS %:    7.35711   MPKI: 1.82732
L2C LOAD TRANSLATION ACCESS:     316418  HIT:     220512  MISS:      95906  HIT %:    69.6901  MISS %:    30.3099   MPKI: 0.47953
L2C TRANSLATION FROM L1D PREFETCHER ACCESS:     712219  HIT:     706908  MISS:       5311  HIT %:    99.2543  MISS %:   0.745698   MPKI: 0.026555
L2C PREFETCH  REQUESTED:          0  ISSUED:          0  USEFUL:     463192  USELESS:    1691204
L2C USEFUL LOAD PREFETCHES:     463192 PREFETCH ISSUED TO LOWER LEVEL:    2368405  ACCURACY: 19.5571
L2C TIMELY PREFETCHES:     463192 LATE PREFETCHES: 219511 DROPPED PREFETCHES: 0
L2C PREFETCHES SAME FILL-ORIGIN LEVEL: 1740706 DIFFERENT FILL-ORIGIN LEVEL: 0
L2C AVERAGE MISS LATENCY: 771.973 cycles
L2C RQ	ACCESS:    6724875	FORWARD:          0	MERGED:          0	TO_CACHE:    6724776
L2C WQ	ACCESS:    4970993	FORWARD:        102	MERGED:          0	TO_CACHE:    4970993
L2C PQ	ACCESS:   18109570	FORWARD:          0	MERGED:     148286	TO_CACHE:   17961281

L2C Instructions Evicting Data 39
L2C Translations Evicting Data 99254
L2C Data Evicting Data 5935258
L2C Instructions Evicting Instructions 0
L2C Translations Evicting Instructions 1
L2C Data Evicting Instructions 36
L2C Instructions Evicting Translations 0
L2C Translations Evicting Translations 1971
L2C Data Evicting Translations 91211
L2C Dense regions hint from L2: 0
PSCL5 TOTAL     ACCESS:    1027370  HIT:    1027370  MISS:          0  HIT %:        100  MISS %:          0   MPKI: 0
PSCL5 LOAD TRANSLATION ACCESS:     316390  HIT:     316390  MISS:          0  HIT %:        100  MISS %:          0   MPKI: 0
PSCL5 TRANSLATION FROM L1D PREFETCHER ACCESS:     710980  HIT:     710980  MISS:          0  HIT %:        100  MISS %:          0   MPKI: 0
PSCL5 PREFETCH  REQUESTED:          0  ISSUED:          0  USEFUL:          0  USELESS:          0
PSCL5 USEFUL LOAD PREFETCHES:          0 PREFETCH ISSUED TO LOWER LEVEL:          0  ACCURACY: -nan
PSCL5 TIMELY PREFETCHES:          0 LATE PREFETCHES: 0 DROPPED PREFETCHES: 0
PSCL5 PREFETCHES SAME FILL-ORIGIN LEVEL: 0 DIFFERENT FILL-ORIGIN LEVEL: 0

PSCL4 TOTAL     ACCESS:    1027370  HIT:    1027370  MISS:          0  HIT %:        100  MISS %:          0   MPKI: 0
PSCL4 LOAD TRANSLATION ACCESS:     316390  HIT:     316390  MISS:          0  HIT %:        100  MISS %:          0   MPKI: 0
PSCL4 TRANSLATION FROM L1D PREFETCHER ACCESS:     710980  HIT:     710980  MISS:          0  HIT %:        100  MISS %:          0   MPKI: 0
PSCL4 PREFETCH  REQUESTED:          0  ISSUED:          0  USEFUL:          0  USELESS:          0
PSCL4 USEFUL LOAD PREFETCHES:          0 PREFETCH ISSUED TO LOWER LEVEL:          0  ACCURACY: -nan
PSCL4 TIMELY PREFETCHES:          0 LATE PREFETCHES: 0 DROPPED PREFETCHES: 0
PSCL4 PREFETCHES SAME FILL-ORIGIN LEVEL: 0 DIFFERENT FILL-ORIGIN LEVEL: 0

PSCL3 TOTAL     ACCESS:    1027370  HIT:    1027370  MISS:          0  HIT %:        100  MISS %:          0   MPKI: 0
PSCL3 LOAD TRANSLATION ACCESS:     316390  HIT:     316390  MISS:          0  HIT %:        100  MISS %:          0   MPKI: 0
PSCL3 TRANSLATION FROM L1D PREFETCHER ACCESS:     710980  HIT:     710980  MISS:          0  HIT %:        100  MISS %:          0   MPKI: 0
PSCL3 PREFETCH  REQUESTED:          0  ISSUED:          0  USEFUL:          0  USELESS:          0
PSCL3 USEFUL LOAD PREFETCHES:          0 PREFETCH ISSUED TO LOWER LEVEL:          0  ACCURACY: -nan
PSCL3 TIMELY PREFETCHES:          0 LATE PREFETCHES: 0 DROPPED PREFETCHES: 0
PSCL3 PREFETCHES SAME FILL-ORIGIN LEVEL: 0 DIFFERENT FILL-ORIGIN LEVEL: 0

PSCL2 TOTAL     ACCESS:    1024722  HIT:    1024553  MISS:        169  HIT %:    99.9835  MISS %:  0.0164923   MPKI: 0.000845
PSCL2 LOAD TRANSLATION ACCESS:     316403  HIT:     316234  MISS:        169  HIT %:    99.9466  MISS %:  0.0534129   MPKI: 0.000845
PSCL2 TRANSLATION FROM L1D PREFETCHER ACCESS:     708319  HIT:     708319  MISS:          0  HIT %:        100  MISS %:          0   MPKI: 0
PSCL2 PREFETCH  REQUESTED:          0  ISSUED:          0  USEFUL:          0  USELESS:          0
PSCL2 USEFUL LOAD PREFETCHES:          0 PREFETCH ISSUED TO LOWER LEVEL:          0  ACCURACY: -nan
PSCL2 TIMELY PREFETCHES:          0 LATE PREFETCHES: 0 DROPPED PREFETCHES: 0
PSCL2 PREFETCHES SAME FILL-ORIGIN LEVEL: 0 DIFFERENT FILL-ORIGIN LEVEL: 0

LLC TOTAL     ACCESS:    9739258  HIT:    4845497  MISS:    4893761  HIT %:    49.7522  MISS %:    50.2478   MPKI: 24.4688
LLC LOAD      ACCESS:    2060459  HIT:    1172158  MISS:     888301  HIT %:    56.8882  MISS %:    43.1118   MPKI: 4.4415
LLC RFO       ACCESS:    1594077  HIT:          0  MISS:    1594077  HIT %:          0  MISS %:        100   MPKI: 7.97038
LLC PREFETCH  ACCESS:    2367956  HIT:      39365  MISS:    2328591  HIT %:     1.6624  MISS %:    98.3376   MPKI: 11.643
LLC WRITEBACK ACCESS:    3615549  HIT:    3546599  MISS:      68950  HIT %:     98.093  MISS %:    1.90704   MPKI: 0.34475
LLC LOAD TRANSLATION ACCESS:      95906  HIT:      86813  MISS:       9093  HIT %:    90.5188  MISS %:    9.48116   MPKI: 0.045465
LLC TRANSLATION FROM L1D PREFETCHER ACCESS:       5311  HIT:        562  MISS:       4749  HIT %:    10.5818  MISS %:    89.4182   MPKI: 0.023745
LLC PREFETCH  REQUESTED:          0  ISSUED:          0  USEFUL:      31769  USELESS:    9321718
LLC USEFUL LOAD PREFETCHES:      31769 PREFETCH ISSUED TO LOWER LEVEL:  299701292  ACCURACY: 0.0106002
LLC TIMELY PREFETCHES:      31769 LATE PREFETCHES: 0 DROPPED PREFETCHES: 0
LLC PREFETCHES SAME FILL-ORIGIN LEVEL: 0 DIFFERENT FILL-ORIGIN LEVEL: 0
LLC AVERAGE MISS LATENCY: 3959.45 cycles
LLC RQ	ACCESS:   15114614	FORWARD:          0	MERGED:          0	TO_CACHE:   15114503
LLC WQ	ACCESS:   14551439	FORWARD:        116	MERGED:          0	TO_CACHE:   14551439
LLC PQ	ACCESS:    9482664	FORWARD:          0	MERGED:          0	TO_CACHE:    9482659

LLC Dense regions hint to LLC: 0

RAW hits: 19035697
Loads Generated: 82688947
Loads sent to L1D: 63653249
Stores Generated: 32928491
Stores sent to L1D: 32928489
Major fault: 0 Minor fault: 67359
Allocated PAGES: 269436

DRAM Statistics
 CHANNEL 0
 RQ ROW_BUFFER_HIT:    8031384  ROW_BUFFER_MISS:   11360871
 DBUS_CONGESTED:        163
 WQ ROW_BUFFER_HIT:    1442665  ROW_BUFFER_MISS:    8326875  FULL:       1797

 AVG_CONGESTED_CYCLE: 5
 All warmup complete: 5
Channel 0 Bank busy for read cycles: 0
Channel 0 Bank busy for write cycles: 0
Channel 0
Rank 0
0banks busy for read cycles: 367222
0banks busy for write cycles: 36
1banks busy for read cycles: 19595813
1banks busy for write cycles: 1036927
2banks busy for read cycles: 35174954
2banks busy for write cycles: 1027659
3banks busy for read cycles: 41277620
3banks busy for write cycles: 1025685
4banks busy for read cycles: 38485477
4banks busy for write cycles: 1031913
5banks busy for read cycles: 32329208
5banks busy for write cycles: 1106097
6banks busy for read cycles: 27004401
6banks busy for write cycles: 3018954
7banks busy for read cycles: 37388908
7banks busy for write cycles: 29660667
8banks busy for read cycles: 174136210
8banks busy for write cycles: 203097070

CPU 0 Branch Prediction Accuracy: 98.4652% MPKI: 1.25406 Average ROB Occupancy at Mispredict: 103.403
Branch types
NOT_BRANCH: 183658577 91.8293%
BRANCH_DIRECT_JUMP: 220 0.00011%
BRANCH_INDIRECT: 0 0%
BRANCH_CONDITIONAL: 16341495 8.17075%
BRANCH_DIRECT_CALL: 20 1e-05%
BRANCH_INDIRECT_CALL: 0 0%
BRANCH_RETURN: 21 1.05e-05%
BRANCH_OTHER: 0 0%


CPU 1 Branch Prediction Accuracy: 98.5409% MPKI: 1.23417 Average ROB Occupancy at Mispredict: 103.344
Branch types
NOT_BRANCH: 186082083 91.5415%
BRANCH_DIRECT_JUMP: 240 0.000118066%
BRANCH_INDIRECT: 0 0%
BRANCH_CONDITIONAL: 17193802 8.45835%
BRANCH_DIRECT_CALL: 31 1.52502e-05%
BRANCH_INDIRECT_CALL: 0 0%
BRANCH_RETURN: 29 1.42663e-05%
BRANCH_OTHER: 0 0%


CPU 2 Branch Prediction Accuracy: 98.5283% MPKI: 1.23855 Average ROB Occupancy at Mispredict: 103.355
Branch types
NOT_BRANCH: 185483074 91.5841%
BRANCH_DIRECT_JUMP: 240 0.000118502%
BRANCH_INDIRECT: 0 0%
BRANCH_CONDITIONAL: 17044123 8.41571%
BRANCH_DIRECT_CALL: 31 1.53066e-05%
BRANCH_INDIRECT_CALL: 0 0%
BRANCH_RETURN: 29 1.4319e-05%
BRANCH_OTHER: 0 0%


CPU 3 Branch Prediction Accuracy: 98.4706% MPKI: 1.25281 Average ROB Occupancy at Mispredict: 103.429
Branch types
NOT_BRANCH: 183802015 91.8088%
BRANCH_DIRECT_JUMP: 220 0.00010989%
BRANCH_INDIRECT: 0 0%
BRANCH_CONDITIONAL: 16398861 8.19121%
BRANCH_DIRECT_CALL: 20 9.98997e-06%
BRANCH_INDIRECT_CALL: 0 0%
BRANCH_RETURN: 21 1.04895e-05%
BRANCH_OTHER: 0 0%

DRAM PAGES: 1048576
Allocated PAGES: 269436
