
*** ChampSim Multicore Out-of-Order Simulator ***

Warmup Instructions: 50000000
Simulation Instructions: 200000000
Number of CPUs: 4
LLC sets: 8192
LLC ways: 16
Off-chip DRAM Size: 4096 MB Channels: 1 Width: 64-bit Data Rate: 6400 MT/s
CPU 0 runs ./traces/spec/450.soplex-92B.champsimtrace.xz
.xz
CPU 1 runs ./traces/spec/654.roms_s-1007B.champsimtrace.xz
.xz
CPU 2 runs ./traces/spec/657.xz_s-2302B.champsimtrace.xz
.xz
CPU 3 runs ./traces/ligra/ligra_PageRankDelta.com-lj.ungraph.gcc_6.3.0_O3.drop_11750M.length_250M.champsimtrace.xz
.xz
BTB has LRU replacement policy
ITLB has LRU replacement policy
DTLB has LRU replacement policy
STLB has LRU replacement policy
L1I has LRU replacement policy
History Sets: 8
History Ways: 16
BERTI Size: 16
BERTI Stride Size: 8
L1D has LRU replacement policy
Initialize SRRIP state for L2C
Initialize DRRIP state for LLC
BTB has LRU replacement policy
ITLB has LRU replacement policy
DTLB has LRU replacement policy
STLB has LRU replacement policy
L1I has LRU replacement policy
History Sets: 8
History Ways: 16
BERTI Size: 16
BERTI Stride Size: 8
L1D has LRU replacement policy
Initialize SRRIP state for L2C
Initialize DRRIP state for LLC
BTB has LRU replacement policy
ITLB has LRU replacement policy
DTLB has LRU replacement policy
STLB has LRU replacement policy
L1I has LRU replacement policy
History Sets: 8
History Ways: 16
BERTI Size: 16
BERTI Stride Size: 8
L1D has LRU replacement policy
Initialize SRRIP state for L2C
Initialize DRRIP state for LLC
BTB has LRU replacement policy
ITLB has LRU replacement policy
DTLB has LRU replacement policy
STLB has LRU replacement policy
L1I has LRU replacement policy
History Sets: 8
History Ways: 16
BERTI Size: 16
BERTI Stride Size: 8
L1D has LRU replacement policy
Initialize SRRIP state for L2C
Initialize DRRIP state for LLC
Heartbeat CPU 2 instructions: 10000003 cycles: 2791230 heartbeat IPC: 3.58265 cumulative IPC: 3.58265 (Simulation time: 0 hr 7 min 0 sec) 
Heartbeat CPU 3 instructions: 10000001 cycles: 2929344 heartbeat IPC: 3.41373 cumulative IPC: 3.41373 (Simulation time: 0 hr 7 min 21 sec) 
Heartbeat CPU 1 instructions: 10000000 cycles: 3015985 heartbeat IPC: 3.31567 cumulative IPC: 3.31567 (Simulation time: 0 hr 7 min 34 sec) 
Heartbeat CPU 0 instructions: 10000001 cycles: 3070297 heartbeat IPC: 3.25701 cumulative IPC: 3.25701 (Simulation time: 0 hr 7 min 41 sec) 
Heartbeat CPU 2 instructions: 20000002 cycles: 5586695 heartbeat IPC: 3.57722 cumulative IPC: 3.57993 (Simulation time: 0 hr 11 min 57 sec) 
Heartbeat CPU 3 instructions: 20000001 cycles: 5858262 heartbeat IPC: 3.41423 cumulative IPC: 3.41398 (Simulation time: 0 hr 12 min 22 sec) 
Heartbeat CPU 1 instructions: 20000002 cycles: 6031742 heartbeat IPC: 3.31592 cumulative IPC: 3.31579 (Simulation time: 0 hr 12 min 37 sec) 
Heartbeat CPU 0 instructions: 20000002 cycles: 6151193 heartbeat IPC: 3.24581 cumulative IPC: 3.2514 (Simulation time: 0 hr 12 min 48 sec) 
Heartbeat CPU 2 instructions: 30000000 cycles: 8413114 heartbeat IPC: 3.53805 cumulative IPC: 3.56586 (Simulation time: 0 hr 15 min 51 sec) 
Heartbeat CPU 3 instructions: 30000002 cycles: 8786997 heartbeat IPC: 3.41444 cumulative IPC: 3.41414 (Simulation time: 0 hr 16 min 21 sec) 
Heartbeat CPU 1 instructions: 30000000 cycles: 9047630 heartbeat IPC: 3.31577 cumulative IPC: 3.31579 (Simulation time: 0 hr 16 min 43 sec) 
Heartbeat CPU 0 instructions: 30000003 cycles: 9209644 heartbeat IPC: 3.26963 cumulative IPC: 3.25746 (Simulation time: 0 hr 16 min 54 sec) 
Heartbeat CPU 2 instructions: 40000003 cycles: 11199818 heartbeat IPC: 3.58847 cumulative IPC: 3.57149 (Simulation time: 0 hr 19 min 28 sec) 
Heartbeat CPU 3 instructions: 40000003 cycles: 11713305 heartbeat IPC: 3.41728 cumulative IPC: 3.41492 (Simulation time: 0 hr 20 min 7 sec) 
Heartbeat CPU 1 instructions: 40000000 cycles: 12063375 heartbeat IPC: 3.31593 cumulative IPC: 3.31582 (Simulation time: 0 hr 20 min 33 sec) 
Heartbeat CPU 0 instructions: 40000002 cycles: 12273295 heartbeat IPC: 3.26408 cumulative IPC: 3.25911 (Simulation time: 0 hr 20 min 48 sec) 
Heartbeat CPU 2 instructions: 50000000 cycles: 13992456 heartbeat IPC: 3.58084 cumulative IPC: 3.57335 (Simulation time: 0 hr 23 min 1 sec) 
Heartbeat CPU 3 instructions: 50000003 cycles: 14642988 heartbeat IPC: 3.41334 cumulative IPC: 3.4146 (Simulation time: 0 hr 23 min 47 sec) 
Heartbeat CPU 1 instructions: 50000003 cycles: 15186855 heartbeat IPC: 3.20156 cumulative IPC: 3.29232 (Simulation time: 0 hr 24 min 19 sec) 
Heartbeat CPU 0 instructions: 50000003 cycles: 15310589 heartbeat IPC: 3.2924 cumulative IPC: 3.26571 (Simulation time: 0 hr 24 min 27 sec) 

Warmup complete CPU 0 instructions: 50000003 cycles: 15310589 (Simulation time: 0 hr 24 min 27 sec) 
Warmup complete CPU 1 instructions: 50390323 cycles: 15310588 (Simulation time: 0 hr 24 min 27 sec) 
Warmup complete CPU 2 instructions: 53605582 cycles: 15310588 (Simulation time: 0 hr 24 min 27 sec) 
Warmup complete CPU 3 instructions: 51835436 cycles: 15310588 (Simulation time: 0 hr 24 min 27 sec) 

Heartbeat CPU 3 instructions: 60000003 cycles: 25124938 heartbeat IPC: 0.954021 cumulative IPC: 0.831901 (Simulation time: 0 hr 27 min 2 sec) 
Heartbeat CPU 2 instructions: 60000002 cycles: 27571456 heartbeat IPC: 0.736431 cumulative IPC: 0.521531 (Simulation time: 0 hr 27 min 45 sec) 
Heartbeat CPU 1 instructions: 60000002 cycles: 31057137 heartbeat IPC: 0.630108 cumulative IPC: 0.610272 (Simulation time: 0 hr 28 min 42 sec) 
Heartbeat CPU 0 instructions: 60000000 cycles: 36999850 heartbeat IPC: 0.461058 cumulative IPC: 0.461058 (Simulation time: 0 hr 30 min 30 sec) 
Heartbeat CPU 3 instructions: 70000001 cycles: 37112768 heartbeat IPC: 0.834179 cumulative IPC: 0.833154 (Simulation time: 0 hr 30 min 32 sec) 
Heartbeat CPU 2 instructions: 70000000 cycles: 41763182 heartbeat IPC: 0.704636 cumulative IPC: 0.619766 (Simulation time: 0 hr 31 min 47 sec) 
Heartbeat CPU 1 instructions: 70000000 cycles: 47075863 heartbeat IPC: 0.624269 cumulative IPC: 0.617331 (Simulation time: 0 hr 33 min 9 sec) 
Heartbeat CPU 3 instructions: 80000001 cycles: 49079416 heartbeat IPC: 0.835656 cumulative IPC: 0.83404 (Simulation time: 0 hr 33 min 41 sec) 
Heartbeat CPU 2 instructions: 80000003 cycles: 58309509 heartbeat IPC: 0.604364 cumulative IPC: 0.613839 (Simulation time: 0 hr 36 min 19 sec) 
Heartbeat CPU 3 instructions: 90000001 cycles: 60874299 heartbeat IPC: 0.847825 cumulative IPC: 0.837609 (Simulation time: 0 hr 37 min 4 sec) 
Heartbeat CPU 1 instructions: 80000000 cycles: 63106698 heartbeat IPC: 0.623798 cumulative IPC: 0.6195 (Simulation time: 0 hr 37 min 40 sec) 
Heartbeat CPU 0 instructions: 70000001 cycles: 63914725 heartbeat IPC: 0.371542 cumulative IPC: 0.411488 (Simulation time: 0 hr 37 min 52 sec) 
Heartbeat CPU 2 instructions: 90000002 cycles: 72732798 heartbeat IPC: 0.693323 cumulative IPC: 0.633804 (Simulation time: 0 hr 40 min 20 sec) 
Heartbeat CPU 3 instructions: 100000000 cycles: 72751414 heartbeat IPC: 0.841955 cumulative IPC: 0.838508 (Simulation time: 0 hr 40 min 21 sec) 
Heartbeat CPU 1 instructions: 90000000 cycles: 79128273 heartbeat IPC: 0.624158 cumulative IPC: 0.620669 (Simulation time: 0 hr 42 min 20 sec) 
Heartbeat CPU 0 instructions: 80000000 cycles: 80709594 heartbeat IPC: 0.59542 cumulative IPC: 0.458723 (Simulation time: 0 hr 42 min 46 sec) 
Heartbeat CPU 3 instructions: 110000000 cycles: 84344816 heartbeat IPC: 0.86256 cumulative IPC: 0.842547 (Simulation time: 0 hr 43 min 48 sec) 
Heartbeat CPU 2 instructions: 100000001 cycles: 87428536 heartbeat IPC: 0.680469 cumulative IPC: 0.643313 (Simulation time: 0 hr 44 min 39 sec) 
Heartbeat CPU 1 instructions: 100000000 cycles: 95184557 heartbeat IPC: 0.622809 cumulative IPC: 0.621099 (Simulation time: 0 hr 46 min 50 sec) 
Heartbeat CPU 3 instructions: 120000001 cycles: 95882259 heartbeat IPC: 0.866743 cumulative IPC: 0.846012 (Simulation time: 0 hr 47 min 1 sec) 
Heartbeat CPU 0 instructions: 90000000 cycles: 100350986 heartbeat IPC: 0.509129 cumulative IPC: 0.470365 (Simulation time: 0 hr 48 min 14 sec) 
Heartbeat CPU 2 instructions: 110000000 cycles: 102580577 heartbeat IPC: 0.659977 cumulative IPC: 0.646206 (Simulation time: 0 hr 48 min 48 sec) 
Heartbeat CPU 3 instructions: 130000000 cycles: 107925438 heartbeat IPC: 0.830345 cumulative IPC: 0.843974 (Simulation time: 0 hr 50 min 13 sec) 
Heartbeat CPU 1 instructions: 110000000 cycles: 111193940 heartbeat IPC: 0.624634 cumulative IPC: 0.62169 (Simulation time: 0 hr 51 min 5 sec) 
Heartbeat CPU 2 instructions: 120000003 cycles: 117716731 heartbeat IPC: 0.66067 cumulative IPC: 0.648344 (Simulation time: 0 hr 52 min 52 sec) 
Heartbeat CPU 0 instructions: 100000001 cycles: 119876518 heartbeat IPC: 0.51215 cumulative IPC: 0.478167 (Simulation time: 0 hr 53 min 27 sec) 
Heartbeat CPU 3 instructions: 140000002 cycles: 119894109 heartbeat IPC: 0.835515 cumulative IPC: 0.843006 (Simulation time: 0 hr 53 min 27 sec) 
Heartbeat CPU 1 instructions: 120000001 cycles: 125994141 heartbeat IPC: 0.675667 cumulative IPC: 0.628907 (Simulation time: 0 hr 55 min 9 sec) 
Heartbeat CPU 3 instructions: 150000000 cycles: 131859005 heartbeat IPC: 0.835778 cumulative IPC: 0.842264 (Simulation time: 0 hr 56 min 42 sec) 
Heartbeat CPU 2 instructions: 130000001 cycles: 140691555 heartbeat IPC: 0.435259 cumulative IPC: 0.609298 (Simulation time: 0 hr 58 min 50 sec) 
Heartbeat CPU 1 instructions: 130000002 cycles: 141657260 heartbeat IPC: 0.638443 cumulative IPC: 0.630089 (Simulation time: 0 hr 59 min 5 sec) 
Heartbeat CPU 3 instructions: 160000002 cycles: 143669660 heartbeat IPC: 0.846693 cumulative IPC: 0.842672 (Simulation time: 0 hr 59 min 39 sec) 
Heartbeat CPU 0 instructions: 110000000 cycles: 145869109 heartbeat IPC: 0.384725 cumulative IPC: 0.459564 (Simulation time: 1 hr 0 min 18 sec) 
Heartbeat CPU 2 instructions: 140000000 cycles: 153902537 heartbeat IPC: 0.756946 cumulative IPC: 0.623373 (Simulation time: 1 hr 2 min 35 sec) 
Heartbeat CPU 3 instructions: 170000000 cycles: 155416950 heartbeat IPC: 0.85126 cumulative IPC: 0.843392 (Simulation time: 1 hr 2 min 59 sec) 
Heartbeat CPU 1 instructions: 140000000 cycles: 157661010 heartbeat IPC: 0.624853 cumulative IPC: 0.629501 (Simulation time: 1 hr 3 min 41 sec) 
Heartbeat CPU 0 instructions: 120000002 cycles: 163508722 heartbeat IPC: 0.566906 cumulative IPC: 0.472341 (Simulation time: 1 hr 5 min 19 sec) 
Heartbeat CPU 3 instructions: 180000000 cycles: 167354039 heartbeat IPC: 0.837725 cumulative IPC: 0.842947 (Simulation time: 1 hr 6 min 24 sec) 
Heartbeat CPU 2 instructions: 150000003 cycles: 168983313 heartbeat IPC: 0.663096 cumulative IPC: 0.627271 (Simulation time: 1 hr 6 min 50 sec) 
Heartbeat CPU 1 instructions: 150000000 cycles: 173671409 heartbeat IPC: 0.624594 cumulative IPC: 0.629005 (Simulation time: 1 hr 8 min 6 sec) 
Heartbeat CPU 3 instructions: 190000000 cycles: 179258141 heartbeat IPC: 0.840047 cumulative IPC: 0.842736 (Simulation time: 1 hr 9 min 40 sec) 
Heartbeat CPU 0 instructions: 130000002 cycles: 182237458 heartbeat IPC: 0.533939 cumulative IPC: 0.479252 (Simulation time: 1 hr 10 min 29 sec) 
Heartbeat CPU 2 instructions: 160000003 cycles: 184095816 heartbeat IPC: 0.661704 cumulative IPC: 0.630354 (Simulation time: 1 hr 11 min 1 sec) 
Heartbeat CPU 1 instructions: 160000001 cycles: 189677861 heartbeat IPC: 0.624748 cumulative IPC: 0.628614 (Simulation time: 1 hr 12 min 39 sec) 
Heartbeat CPU 3 instructions: 200000002 cycles: 190905231 heartbeat IPC: 0.858584 cumulative IPC: 0.843787 (Simulation time: 1 hr 13 min 1 sec) 
Heartbeat CPU 2 instructions: 170000000 cycles: 196325928 heartbeat IPC: 0.817654 cumulative IPC: 0.643009 (Simulation time: 1 hr 14 min 37 sec) 
Heartbeat CPU 0 instructions: 140000003 cycles: 200702681 heartbeat IPC: 0.541559 cumulative IPC: 0.485458 (Simulation time: 1 hr 15 min 51 sec) 
Heartbeat CPU 3 instructions: 210000001 cycles: 202811804 heartbeat IPC: 0.839872 cumulative IPC: 0.843539 (Simulation time: 1 hr 16 min 26 sec) 
Heartbeat CPU 1 instructions: 170000000 cycles: 205681202 heartbeat IPC: 0.624869 cumulative IPC: 0.628299 (Simulation time: 1 hr 17 min 20 sec) 
Heartbeat CPU 2 instructions: 180000001 cycles: 207594497 heartbeat IPC: 0.887424 cumulative IPC: 0.657332 (Simulation time: 1 hr 17 min 55 sec) 
Heartbeat CPU 3 instructions: 220000000 cycles: 214704930 heartbeat IPC: 0.840822 cumulative IPC: 0.843377 (Simulation time: 1 hr 20 min 7 sec) 
Heartbeat CPU 0 instructions: 150000002 cycles: 218778946 heartbeat IPC: 0.553212 cumulative IPC: 0.491477 (Simulation time: 1 hr 21 min 15 sec) 
Heartbeat CPU 2 instructions: 190000002 cycles: 218785324 heartbeat IPC: 0.893589 cumulative IPC: 0.670326 (Simulation time: 1 hr 21 min 15 sec) 
Heartbeat CPU 1 instructions: 180000002 cycles: 221682539 heartbeat IPC: 0.624948 cumulative IPC: 0.628039 (Simulation time: 1 hr 22 min 7 sec) 
Heartbeat CPU 3 instructions: 230000002 cycles: 226686187 heartbeat IPC: 0.834637 cumulative IPC: 0.842881 (Simulation time: 1 hr 23 min 38 sec) 
Heartbeat CPU 2 instructions: 200000002 cycles: 229984981 heartbeat IPC: 0.892884 cumulative IPC: 0.681937 (Simulation time: 1 hr 24 min 38 sec) 
Heartbeat CPU 0 instructions: 160000001 cycles: 235444737 heartbeat IPC: 0.600031 cumulative IPC: 0.499695 (Simulation time: 1 hr 26 min 12 sec) 
Heartbeat CPU 1 instructions: 190000002 cycles: 237689078 heartbeat IPC: 0.624745 cumulative IPC: 0.627802 (Simulation time: 1 hr 26 min 54 sec) 
Heartbeat CPU 3 instructions: 240000000 cycles: 238555848 heartbeat IPC: 0.842484 cumulative IPC: 0.84286 (Simulation time: 1 hr 27 min 10 sec) 
Heartbeat CPU 2 instructions: 210000000 cycles: 241722731 heartbeat IPC: 0.851952 cumulative IPC: 0.690751 (Simulation time: 1 hr 28 min 17 sec) 
Heartbeat CPU 1 instructions: 200000001 cycles: 249714725 heartbeat IPC: 0.831556 cumulative IPC: 0.638255 (Simulation time: 1 hr 30 min 38 sec) 
*** Reached end of trace for Core: 3 Repeating trace: ./traces/ligra/ligra_PageRankDelta.com-lj.ungraph.gcc_6.3.0_O3.drop_11750M.length_250M.champsimtrace.xz
Heartbeat CPU 3 instructions: 250000000 cycles: 250492519 heartbeat IPC: 0.837754 cumulative IPC: 0.842601 (Simulation time: 1 hr 30 min 52 sec) 
Finished CPU 3 instructions: 200000000 cycles: 237267685 cumulative IPC: 0.84293 (Simulation time: 1 hr 31 min 25 sec) 
Heartbeat CPU 2 instructions: 220000000 cycles: 255675343 heartbeat IPC: 0.716712 cumulative IPC: 0.692258 (Simulation time: 1 hr 32 min 15 sec) 
Heartbeat CPU 3 instructions: 260000001 cycles: 262266927 heartbeat IPC: 0.8493 cumulative IPC: 0.842921 (Simulation time: 1 hr 34 min 1 sec) 
Heartbeat CPU 0 instructions: 170000001 cycles: 264125423 heartbeat IPC: 0.348667 cumulative IPC: 0.482286 (Simulation time: 1 hr 34 min 32 sec) 
Heartbeat CPU 1 instructions: 210000001 cycles: 267011038 heartbeat IPC: 0.578158 cumulative IPC: 0.634126 (Simulation time: 1 hr 35 min 28 sec) 
Heartbeat CPU 2 instructions: 230000003 cycles: 267748147 heartbeat IPC: 0.828308 cumulative IPC: 0.698765 (Simulation time: 1 hr 35 min 40 sec) 
Heartbeat CPU 3 instructions: 270000001 cycles: 274196571 heartbeat IPC: 0.838248 cumulative IPC: 0.842705 (Simulation time: 1 hr 37 min 37 sec) 
Heartbeat CPU 2 instructions: 240000001 cycles: 279506817 heartbeat IPC: 0.850436 cumulative IPC: 0.705515 (Simulation time: 1 hr 39 min 5 sec) 
Heartbeat CPU 1 instructions: 220000000 cycles: 283013181 heartbeat IPC: 0.624916 cumulative IPC: 0.633575 (Simulation time: 1 hr 40 min 8 sec) 
Heartbeat CPU 0 instructions: 180000002 cycles: 285590229 heartbeat IPC: 0.465879 cumulative IPC: 0.480983 (Simulation time: 1 hr 40 min 55 sec) 
Heartbeat CPU 3 instructions: 280000002 cycles: 286008718 heartbeat IPC: 0.846586 cumulative IPC: 0.842875 (Simulation time: 1 hr 41 min 5 sec) 
Heartbeat CPU 2 instructions: 250000003 cycles: 291008955 heartbeat IPC: 0.869404 cumulative IPC: 0.712353 (Simulation time: 1 hr 42 min 46 sec) 
Finished CPU 2 instructions: 200000003 cycles: 280151541 cumulative IPC: 0.713899 (Simulation time: 1 hr 44 min 17 sec) 
Heartbeat CPU 3 instructions: 290000001 cycles: 297791111 heartbeat IPC: 0.848724 cumulative IPC: 0.843119 (Simulation time: 1 hr 44 min 57 sec) 
Heartbeat CPU 1 instructions: 230000000 cycles: 299032696 heartbeat IPC: 0.624239 cumulative IPC: 0.633048 (Simulation time: 1 hr 45 min 22 sec) 
Heartbeat CPU 0 instructions: 190000000 cycles: 300892562 heartbeat IPC: 0.653495 cumulative IPC: 0.490227 (Simulation time: 1 hr 46 min 0 sec) 
Heartbeat CPU 2 instructions: 260000000 cycles: 303078404 heartbeat IPC: 0.828538 cumulative IPC: 0.717225 (Simulation time: 1 hr 46 min 39 sec) 
Heartbeat CPU 3 instructions: 300000003 cycles: 309293798 heartbeat IPC: 0.869362 cumulative IPC: 0.844145 (Simulation time: 1 hr 48 min 28 sec) 
Heartbeat CPU 1 instructions: 240000001 cycles: 315048260 heartbeat IPC: 0.624393 cumulative IPC: 0.632585 (Simulation time: 1 hr 50 min 15 sec) 
Heartbeat CPU 2 instructions: 270000000 cycles: 315090982 heartbeat IPC: 0.832461 cumulative IPC: 0.721843 (Simulation time: 1 hr 50 min 16 sec) 
Heartbeat CPU 0 instructions: 200000000 cycles: 319928125 heartbeat IPC: 0.525333 cumulative IPC: 0.492421 (Simulation time: 1 hr 51 min 48 sec) 
Heartbeat CPU 3 instructions: 310000003 cycles: 321136858 heartbeat IPC: 0.844376 cumulative IPC: 0.844154 (Simulation time: 1 hr 52 min 9 sec) 
Heartbeat CPU 2 instructions: 280000000 cycles: 327127177 heartbeat IPC: 0.830827 cumulative IPC: 0.72605 (Simulation time: 1 hr 53 min 50 sec) 
Heartbeat CPU 1 instructions: 250000003 cycles: 331044397 heartbeat IPC: 0.625151 cumulative IPC: 0.632209 (Simulation time: 1 hr 55 min 0 sec) 
Finished CPU 1 instructions: 200000000 cycles: 316359305 cumulative IPC: 0.632193 (Simulation time: 1 hr 55 min 12 sec) 
Heartbeat CPU 3 instructions: 320000001 cycles: 333045138 heartbeat IPC: 0.839752 cumulative IPC: 0.843989 (Simulation time: 1 hr 55 min 39 sec) 
Heartbeat CPU 0 instructions: 210000002 cycles: 337822570 heartbeat IPC: 0.558833 cumulative IPC: 0.496106 (Simulation time: 1 hr 57 min 0 sec) 
Heartbeat CPU 2 instructions: 290000001 cycles: 339310179 heartbeat IPC: 0.820816 cumulative IPC: 0.729613 (Simulation time: 1 hr 57 min 26 sec) 
Heartbeat CPU 3 instructions: 330000000 cycles: 344938435 heartbeat IPC: 0.84081 cumulative IPC: 0.843875 (Simulation time: 1 hr 59 min 5 sec) 
Heartbeat CPU 1 instructions: 260000002 cycles: 347049196 heartbeat IPC: 0.624813 cumulative IPC: 0.631852 (Simulation time: 1 hr 59 min 39 sec) 
Heartbeat CPU 2 instructions: 300000002 cycles: 352233250 heartbeat IPC: 0.77381 cumulative IPC: 0.731309 (Simulation time: 2 hr 1 min 15 sec) 
Heartbeat CPU 3 instructions: 340000001 cycles: 356649991 heartbeat IPC: 0.853858 cumulative IPC: 0.844217 (Simulation time: 2 hr 2 min 32 sec) 
Heartbeat CPU 0 instructions: 220000000 cycles: 357241895 heartbeat IPC: 0.514951 cumulative IPC: 0.497176 (Simulation time: 2 hr 2 min 40 sec) 
Heartbeat CPU 1 instructions: 270000002 cycles: 360883284 heartbeat IPC: 0.722852 cumulative IPC: 0.635495 (Simulation time: 2 hr 3 min 45 sec) 
Heartbeat CPU 3 instructions: 350000000 cycles: 368463043 heartbeat IPC: 0.846521 cumulative IPC: 0.844294 (Simulation time: 2 hr 5 min 41 sec) 
Heartbeat CPU 2 instructions: 310000002 cycles: 369828771 heartbeat IPC: 0.568326 cumulative IPC: 0.723219 (Simulation time: 2 hr 6 min 1 sec) 
Heartbeat CPU 1 instructions: 280000000 cycles: 378567495 heartbeat IPC: 0.565476 cumulative IPC: 0.632086 (Simulation time: 2 hr 8 min 31 sec) 
Heartbeat CPU 3 instructions: 360000003 cycles: 379977500 heartbeat IPC: 0.868474 cumulative IPC: 0.845058 (Simulation time: 2 hr 8 min 55 sec) 
Heartbeat CPU 2 instructions: 320000000 cycles: 381344070 heartbeat IPC: 0.86841 cumulative IPC: 0.727787 (Simulation time: 2 hr 9 min 19 sec) 
Heartbeat CPU 0 instructions: 230000002 cycles: 383496939 heartbeat IPC: 0.380879 cumulative IPC: 0.488883 (Simulation time: 2 hr 9 min 58 sec) 
Heartbeat CPU 3 instructions: 370000001 cycles: 391461482 heartbeat IPC: 0.870778 cumulative IPC: 0.845843 (Simulation time: 2 hr 12 min 30 sec) 
Heartbeat CPU 2 instructions: 330000000 cycles: 391494035 heartbeat IPC: 0.985225 cumulative IPC: 0.734733 (Simulation time: 2 hr 12 min 30 sec) 
Heartbeat CPU 1 instructions: 290000000 cycles: 394581943 heartbeat IPC: 0.624436 cumulative IPC: 0.631763 (Simulation time: 2 hr 13 min 27 sec) 
Heartbeat CPU 0 instructions: 240000000 cycles: 402462414 heartbeat IPC: 0.527274 cumulative IPC: 0.490764 (Simulation time: 2 hr 15 min 45 sec) 
Heartbeat CPU 3 instructions: 380000000 cycles: 403437056 heartbeat IPC: 0.835033 cumulative IPC: 0.845509 (Simulation time: 2 hr 16 min 2 sec) 
Heartbeat CPU 2 instructions: 340000003 cycles: 404383797 heartbeat IPC: 0.77581 cumulative IPC: 0.736094 (Simulation time: 2 hr 16 min 19 sec) 
Heartbeat CPU 1 instructions: 300000000 cycles: 410638176 heartbeat IPC: 0.622811 cumulative IPC: 0.6314 (Simulation time: 2 hr 18 min 19 sec) 
Heartbeat CPU 3 instructions: 390000002 cycles: 415345581 heartbeat IPC: 0.839735 cumulative IPC: 0.845337 (Simulation time: 2 hr 19 min 36 sec) 
Heartbeat CPU 2 instructions: 350000001 cycles: 415351592 heartbeat IPC: 0.91176 cumulative IPC: 0.74091 (Simulation time: 2 hr 19 min 36 sec) 
Heartbeat CPU 0 instructions: 250000000 cycles: 421604772 heartbeat IPC: 0.522402 cumulative IPC: 0.492254 (Simulation time: 2 hr 21 min 28 sec) 
Finished CPU 0 instructions: 200000001 cycles: 406294188 cumulative IPC: 0.492254 (Simulation time: 2 hr 21 min 28 sec) 

ChampSim completed all CPUs

Total Simulation Statistics (not including warmup)

CPU 0 cumulative IPC: 0.492254 instructions: 200000001 cycles: 406294188
ITLB TOTAL     ACCESS:   33468436  HIT:   33468424  MISS:         12  HIT %:        100  MISS %: 3.58547e-05   MPKI: 6e-05
ITLB LOAD      ACCESS:          0  HIT:          0  MISS:          0  HIT %:       -nan  MISS %:       -nan   MPKI: 0
ITLB RFO       ACCESS:          0  HIT:          0  MISS:          0  HIT %:       -nan  MISS %:       -nan   MPKI: 0
ITLB PREFETCH  ACCESS:          0  HIT:          0  MISS:          0  HIT %:       -nan  MISS %:       -nan   MPKI: 0
ITLB WRITEBACK ACCESS:          0  HIT:          0  MISS:          0  HIT %:       -nan  MISS %:       -nan   MPKI: 0
DTLB TOTAL     ACCESS:   40510400  HIT:   39404899  MISS:    1105501  HIT %:    97.2711  MISS %:    2.72893   MPKI: 5.5275
DTLB LOAD      ACCESS:          0  HIT:          0  MISS:          0  HIT %:       -nan  MISS %:       -nan   MPKI: 0
DTLB RFO       ACCESS:          0  HIT:          0  MISS:          0  HIT %:       -nan  MISS %:       -nan   MPKI: 0
DTLB PREFETCH  ACCESS:          0  HIT:          0  MISS:          0  HIT %:       -nan  MISS %:       -nan   MPKI: 0
DTLB WRITEBACK ACCESS:          0  HIT:          0  MISS:          0  HIT %:       -nan  MISS %:       -nan   MPKI: 0
STLB TOTAL     ACCESS:   11713382  HIT:   11536339  MISS:     177043  HIT %:    98.4885  MISS %:    1.51146   MPKI: 0.885215
STLB LOAD      ACCESS:          0  HIT:          0  MISS:          0  HIT %:       -nan  MISS %:       -nan   MPKI: 0
STLB RFO       ACCESS:          0  HIT:          0  MISS:          0  HIT %:       -nan  MISS %:       -nan   MPKI: 0
STLB PREFETCH  ACCESS:          0  HIT:          0  MISS:          0  HIT %:       -nan  MISS %:       -nan   MPKI: 0
STLB WRITEBACK ACCESS:          0  HIT:          0  MISS:          0  HIT %:       -nan  MISS %:       -nan   MPKI: 0
L1D TOTAL     ACCESS:   77393769  HIT:   69561648  MISS:    7832121  HIT %:    89.8802  MISS %:    10.1198   MPKI: 39.1606
L1D LOAD      ACCESS:   31016082  HIT:   26451353  MISS:    4564729  HIT %:    85.2827  MISS %:    14.7173   MPKI: 22.8236
L1D RFO       ACCESS:   11340414  HIT:   10066592  MISS:    1273822  HIT %:    88.7674  MISS %:    11.2326   MPKI: 6.36911
L1D PREFETCH  ACCESS:   35037273  HIT:   33043703  MISS:    1993570  HIT %:    94.3101  MISS %:    5.68985   MPKI: 9.96785
L1D WRITEBACK ACCESS:          0  HIT:          0  MISS:          0  HIT %:       -nan  MISS %:       -nan   MPKI: 0
L1I TOTAL     ACCESS:   36703040  HIT:   36701743  MISS:       1297  HIT %:    99.9965  MISS %: 0.00353377   MPKI: 0.006485
L1I LOAD      ACCESS:   36703040  HIT:   36701743  MISS:       1297  HIT %:    99.9965  MISS %: 0.00353377   MPKI: 0.006485
L1I RFO       ACCESS:          0  HIT:          0  MISS:          0  HIT %:       -nan  MISS %:       -nan   MPKI: 0
L1I PREFETCH  ACCESS:          0  HIT:          0  MISS:          0  HIT %:       -nan  MISS %:       -nan   MPKI: 0
L1I WRITEBACK ACCESS:          0  HIT:          0  MISS:          0  HIT %:       -nan  MISS %:       -nan   MPKI: 0
L2C TOTAL     ACCESS:   18959112  HIT:   11700844  MISS:    7258268  HIT %:    61.7162  MISS %:    38.2838   MPKI: 36.2913
L2C LOAD      ACCESS:    4511696  HIT:    2047033  MISS:    2464663  HIT %:    45.3717  MISS %:    54.6283   MPKI: 12.3233
L2C RFO       ACCESS:    1273764  HIT:     161329  MISS:    1112435  HIT %:    12.6655  MISS %:    87.3345   MPKI: 5.56217
L2C PREFETCH  ACCESS:    9814221  HIT:    6301745  MISS:    3512476  HIT %:    64.2103  MISS %:    35.7897   MPKI: 17.5624
L2C WRITEBACK ACCESS:    3166829  HIT:    3047551  MISS:     119278  HIT %:    96.2335  MISS %:    3.76648   MPKI: 0.59639
PSCL5 TOTAL     ACCESS:     191669  HIT:     191669  MISS:          0  HIT %:        100  MISS %:          0   MPKI: 0
PSCL5 LOAD      ACCESS:          0  HIT:          0  MISS:          0  HIT %:       -nan  MISS %:       -nan   MPKI: 0
PSCL5 RFO       ACCESS:          0  HIT:          0  MISS:          0  HIT %:       -nan  MISS %:       -nan   MPKI: 0
PSCL5 PREFETCH  ACCESS:          0  HIT:          0  MISS:          0  HIT %:       -nan  MISS %:       -nan   MPKI: 0
PSCL5 WRITEBACK ACCESS:          0  HIT:          0  MISS:          0  HIT %:       -nan  MISS %:       -nan   MPKI: 0
PSCL4 TOTAL     ACCESS:     191669  HIT:     191669  MISS:          0  HIT %:        100  MISS %:          0   MPKI: 0
PSCL4 LOAD      ACCESS:          0  HIT:          0  MISS:          0  HIT %:       -nan  MISS %:       -nan   MPKI: 0
PSCL4 RFO       ACCESS:          0  HIT:          0  MISS:          0  HIT %:       -nan  MISS %:       -nan   MPKI: 0
PSCL4 PREFETCH  ACCESS:          0  HIT:          0  MISS:          0  HIT %:       -nan  MISS %:       -nan   MPKI: 0
PSCL4 WRITEBACK ACCESS:          0  HIT:          0  MISS:          0  HIT %:       -nan  MISS %:       -nan   MPKI: 0
PSCL3 TOTAL     ACCESS:     191669  HIT:     191669  MISS:          0  HIT %:        100  MISS %:          0   MPKI: 0
PSCL3 LOAD      ACCESS:          0  HIT:          0  MISS:          0  HIT %:       -nan  MISS %:       -nan   MPKI: 0
PSCL3 RFO       ACCESS:          0  HIT:          0  MISS:          0  HIT %:       -nan  MISS %:       -nan   MPKI: 0
PSCL3 PREFETCH  ACCESS:          0  HIT:          0  MISS:          0  HIT %:       -nan  MISS %:       -nan   MPKI: 0
PSCL3 WRITEBACK ACCESS:          0  HIT:          0  MISS:          0  HIT %:       -nan  MISS %:       -nan   MPKI: 0
PSCL2 TOTAL     ACCESS:     191669  HIT:     190724  MISS:        945  HIT %:     99.507  MISS %:   0.493037   MPKI: 0.004725
PSCL2 LOAD      ACCESS:          0  HIT:          0  MISS:          0  HIT %:       -nan  MISS %:       -nan   MPKI: 0
PSCL2 RFO       ACCESS:          0  HIT:          0  MISS:          0  HIT %:       -nan  MISS %:       -nan   MPKI: 0
PSCL2 PREFETCH  ACCESS:          0  HIT:          0  MISS:          0  HIT %:       -nan  MISS %:       -nan   MPKI: 0
PSCL2 WRITEBACK ACCESS:          0  HIT:          0  MISS:          0  HIT %:       -nan  MISS %:       -nan   MPKI: 0
LLC TOTAL     ACCESS:    9419690  HIT:    5731281  MISS:    3688409  HIT %:    60.8436  MISS %:    39.1564   MPKI: 18.442
LLC LOAD      ACCESS:    2344452  HIT:    1323611  MISS:    1020841  HIT %:    56.4572  MISS %:    43.5428   MPKI: 5.1042
LLC RFO       ACCESS:    1112430  HIT:     570399  MISS:     542031  HIT %:     51.275  MISS %:     48.725   MPKI: 2.71015
LLC PREFETCH  ACCESS:    3632658  HIT:    1539650  MISS:    2093008  HIT %:    42.3836  MISS %:    57.6164   MPKI: 10.465
LLC WRITEBACK ACCESS:    2280734  HIT:    2269436  MISS:      11298  HIT %:    99.5046  MISS %:   0.495367   MPKI: 0.05649

RAW hits: 1292926
Loads Generated: 56818273
Loads sent to L1D: 55525344
Stores Generated: 15278735
Stores sent to L1D: 15278735

CPU 1 cumulative IPC: 0.631228 instructions: 256464355 cycles: 406294189
ITLB TOTAL     ACCESS:   43416340  HIT:   43416338  MISS:          2  HIT %:        100  MISS %: 4.60656e-06   MPKI: 7.79835e-06
ITLB LOAD      ACCESS:          0  HIT:          0  MISS:          0  HIT %:       -nan  MISS %:       -nan   MPKI: 0
ITLB RFO       ACCESS:          0  HIT:          0  MISS:          0  HIT %:       -nan  MISS %:       -nan   MPKI: 0
ITLB PREFETCH  ACCESS:          0  HIT:          0  MISS:          0  HIT %:       -nan  MISS %:       -nan   MPKI: 0
ITLB WRITEBACK ACCESS:          0  HIT:          0  MISS:          0  HIT %:       -nan  MISS %:       -nan   MPKI: 0
DTLB TOTAL     ACCESS:   69036955  HIT:   68995796  MISS:      41159  HIT %:    99.9404  MISS %:  0.0596188   MPKI: 0.160486
DTLB LOAD      ACCESS:          0  HIT:          0  MISS:          0  HIT %:       -nan  MISS %:       -nan   MPKI: 0
DTLB RFO       ACCESS:          0  HIT:          0  MISS:          0  HIT %:       -nan  MISS %:       -nan   MPKI: 0
DTLB PREFETCH  ACCESS:          0  HIT:          0  MISS:          0  HIT %:       -nan  MISS %:       -nan   MPKI: 0
DTLB WRITEBACK ACCESS:          0  HIT:          0  MISS:          0  HIT %:       -nan  MISS %:       -nan   MPKI: 0
STLB TOTAL     ACCESS:    6769820  HIT:    6729869  MISS:      39951  HIT %:    99.4099  MISS %:   0.590134   MPKI: 0.155776
STLB LOAD      ACCESS:          0  HIT:          0  MISS:          0  HIT %:       -nan  MISS %:       -nan   MPKI: 0
STLB RFO       ACCESS:          0  HIT:          0  MISS:          0  HIT %:       -nan  MISS %:       -nan   MPKI: 0
STLB PREFETCH  ACCESS:          0  HIT:          0  MISS:          0  HIT %:       -nan  MISS %:       -nan   MPKI: 0
STLB WRITEBACK ACCESS:          0  HIT:          0  MISS:          0  HIT %:       -nan  MISS %:       -nan   MPKI: 0
L1D TOTAL     ACCESS:  101008875  HIT:   99316844  MISS:    1692031  HIT %:    98.3249  MISS %:    1.67513   MPKI: 6.59753
L1D LOAD      ACCESS:   48429208  HIT:   48099321  MISS:     329887  HIT %:    99.3188  MISS %:   0.681174   MPKI: 1.28629
L1D RFO       ACCESS:   27192439  HIT:   26621201  MISS:     571238  HIT %:    97.8993  MISS %:    2.10072   MPKI: 2.22736
L1D PREFETCH  ACCESS:   25387228  HIT:   24596322  MISS:     790906  HIT %:    96.8846  MISS %:    3.11537   MPKI: 3.08388
L1D WRITEBACK ACCESS:          0  HIT:          0  MISS:          0  HIT %:       -nan  MISS %:       -nan   MPKI: 0
L1I TOTAL     ACCESS:   55163011  HIT:   55162975  MISS:         36  HIT %:    99.9999  MISS %: 6.52611e-05   MPKI: 0.00014037
L1I LOAD      ACCESS:   55163011  HIT:   55162975  MISS:         36  HIT %:    99.9999  MISS %: 6.52611e-05   MPKI: 0.00014037
L1I RFO       ACCESS:          0  HIT:          0  MISS:          0  HIT %:       -nan  MISS %:       -nan   MPKI: 0
L1I PREFETCH  ACCESS:          0  HIT:          0  MISS:          0  HIT %:       -nan  MISS %:       -nan   MPKI: 0
L1I WRITEBACK ACCESS:          0  HIT:          0  MISS:          0  HIT %:       -nan  MISS %:       -nan   MPKI: 0
L2C TOTAL     ACCESS:    4934152  HIT:    3168696  MISS:    1765456  HIT %:    64.2197  MISS %:    35.7803   MPKI: 6.88383
L2C LOAD      ACCESS:     298379  HIT:     190319  MISS:     108060  HIT %:    63.7843  MISS %:    36.2157   MPKI: 0.421345
L2C RFO       ACCESS:     571238  HIT:          0  MISS:     571238  HIT %:          0  MISS %:        100   MPKI: 2.22736
L2C PREFETCH  ACCESS:    3415812  HIT:    2364464  MISS:    1051348  HIT %:    69.2211  MISS %:    30.7789   MPKI: 4.09939
L2C WRITEBACK ACCESS:     571175  HIT:     544938  MISS:      26237  HIT %:    95.4065  MISS %:    4.59351   MPKI: 0.102303
PSCL5 TOTAL     ACCESS:      77420  HIT:      77420  MISS:          0  HIT %:        100  MISS %:          0   MPKI: 0
PSCL5 LOAD      ACCESS:          0  HIT:          0  MISS:          0  HIT %:       -nan  MISS %:       -nan   MPKI: 0
PSCL5 RFO       ACCESS:          0  HIT:          0  MISS:          0  HIT %:       -nan  MISS %:       -nan   MPKI: 0
PSCL5 PREFETCH  ACCESS:          0  HIT:          0  MISS:          0  HIT %:       -nan  MISS %:       -nan   MPKI: 0
PSCL5 WRITEBACK ACCESS:          0  HIT:          0  MISS:          0  HIT %:       -nan  MISS %:       -nan   MPKI: 0
PSCL4 TOTAL     ACCESS:      77420  HIT:      77420  MISS:          0  HIT %:        100  MISS %:          0   MPKI: 0
PSCL4 LOAD      ACCESS:          0  HIT:          0  MISS:          0  HIT %:       -nan  MISS %:       -nan   MPKI: 0
PSCL4 RFO       ACCESS:          0  HIT:          0  MISS:          0  HIT %:       -nan  MISS %:       -nan   MPKI: 0
PSCL4 PREFETCH  ACCESS:          0  HIT:          0  MISS:          0  HIT %:       -nan  MISS %:       -nan   MPKI: 0
PSCL4 WRITEBACK ACCESS:          0  HIT:          0  MISS:          0  HIT %:       -nan  MISS %:       -nan   MPKI: 0
PSCL3 TOTAL     ACCESS:      77416  HIT:      77408  MISS:          8  HIT %:    99.9897  MISS %:  0.0103338   MPKI: 3.11934e-05
PSCL3 LOAD      ACCESS:          0  HIT:          0  MISS:          0  HIT %:       -nan  MISS %:       -nan   MPKI: 0
PSCL3 RFO       ACCESS:          0  HIT:          0  MISS:          0  HIT %:       -nan  MISS %:       -nan   MPKI: 0
PSCL3 PREFETCH  ACCESS:          0  HIT:          0  MISS:          0  HIT %:       -nan  MISS %:       -nan   MPKI: 0
PSCL3 WRITEBACK ACCESS:          0  HIT:          0  MISS:          0  HIT %:       -nan  MISS %:       -nan   MPKI: 0
PSCL2 TOTAL     ACCESS:      77386  HIT:      77213  MISS:        173  HIT %:    99.7764  MISS %:   0.223555   MPKI: 0.000674558
PSCL2 LOAD      ACCESS:          0  HIT:          0  MISS:          0  HIT %:       -nan  MISS %:       -nan   MPKI: 0
PSCL2 RFO       ACCESS:          0  HIT:          0  MISS:          0  HIT %:       -nan  MISS %:       -nan   MPKI: 0
PSCL2 PREFETCH  ACCESS:          0  HIT:          0  MISS:          0  HIT %:       -nan  MISS %:       -nan   MPKI: 0
PSCL2 WRITEBACK ACCESS:          0  HIT:          0  MISS:          0  HIT %:       -nan  MISS %:       -nan   MPKI: 0
LLC TOTAL     ACCESS:    2310191  HIT:     503755  MISS:    1806436  HIT %:    21.8058  MISS %:    78.1942   MPKI: 7.04361
LLC LOAD      ACCESS:      49745  HIT:        118  MISS:      49627  HIT %:    0.23721  MISS %:    99.7628   MPKI: 0.193504
LLC RFO       ACCESS:     571238  HIT:          0  MISS:     571238  HIT %:          0  MISS %:        100   MPKI: 2.22736
LLC PREFETCH  ACCESS:    1109663  HIT:       1024  MISS:    1108639  HIT %:  0.0922803  MISS %:    99.9077   MPKI: 4.32278
LLC WRITEBACK ACCESS:     570972  HIT:     502443  MISS:      68529  HIT %:    87.9978  MISS %:    12.0022   MPKI: 0.267207

RAW hits: 8554502
Loads Generated: 70145260
Loads sent to L1D: 61590758
Stores Generated: 32021279
Stores sent to L1D: 32021285

CPU 2 cumulative IPC: 0.742272 instructions: 301580657 cycles: 406294189
ITLB TOTAL     ACCESS:   43108147  HIT:   43108143  MISS:          4  HIT %:        100  MISS %: 9.27899e-06   MPKI: 1.32635e-05
ITLB LOAD      ACCESS:          0  HIT:          0  MISS:          0  HIT %:       -nan  MISS %:       -nan   MPKI: 0
ITLB RFO       ACCESS:          0  HIT:          0  MISS:          0  HIT %:       -nan  MISS %:       -nan   MPKI: 0
ITLB PREFETCH  ACCESS:          0  HIT:          0  MISS:          0  HIT %:       -nan  MISS %:       -nan   MPKI: 0
ITLB WRITEBACK ACCESS:          0  HIT:          0  MISS:          0  HIT %:       -nan  MISS %:       -nan   MPKI: 0
DTLB TOTAL     ACCESS:   57513994  HIT:   56282463  MISS:    1231531  HIT %:    97.8587  MISS %:    2.14127   MPKI: 4.08359
DTLB LOAD      ACCESS:          0  HIT:          0  MISS:          0  HIT %:       -nan  MISS %:       -nan   MPKI: 0
DTLB RFO       ACCESS:          0  HIT:          0  MISS:          0  HIT %:       -nan  MISS %:       -nan   MPKI: 0
DTLB PREFETCH  ACCESS:          0  HIT:          0  MISS:          0  HIT %:       -nan  MISS %:       -nan   MPKI: 0
DTLB WRITEBACK ACCESS:          0  HIT:          0  MISS:          0  HIT %:       -nan  MISS %:       -nan   MPKI: 0
STLB TOTAL     ACCESS:    1725091  HIT:    1566271  MISS:     158820  HIT %:    90.7935  MISS %:    9.20647   MPKI: 0.526625
STLB LOAD      ACCESS:          0  HIT:          0  MISS:          0  HIT %:       -nan  MISS %:       -nan   MPKI: 0
STLB RFO       ACCESS:          0  HIT:          0  MISS:          0  HIT %:       -nan  MISS %:       -nan   MPKI: 0
STLB PREFETCH  ACCESS:          0  HIT:          0  MISS:          0  HIT %:       -nan  MISS %:       -nan   MPKI: 0
STLB WRITEBACK ACCESS:          0  HIT:          0  MISS:          0  HIT %:       -nan  MISS %:       -nan   MPKI: 0
L1D TOTAL     ACCESS:   74231491  HIT:   72588374  MISS:    1643117  HIT %:    97.7865  MISS %:     2.2135   MPKI: 5.44835
L1D LOAD      ACCESS:   47251808  HIT:   45882906  MISS:    1368902  HIT %:     97.103  MISS %:    2.89704   MPKI: 4.53909
L1D RFO       ACCESS:   25976054  HIT:   25728649  MISS:     247405  HIT %:    99.0476  MISS %:   0.952435   MPKI: 0.820361
L1D PREFETCH  ACCESS:    1003629  HIT:     976819  MISS:      26810  HIT %:    97.3287  MISS %:    2.67131   MPKI: 0.0888983
L1D WRITEBACK ACCESS:          0  HIT:          0  MISS:          0  HIT %:       -nan  MISS %:       -nan   MPKI: 0
L1I TOTAL     ACCESS:   51543947  HIT:   51543364  MISS:        583  HIT %:    99.9989  MISS %: 0.00113107   MPKI: 0.00193315
L1I LOAD      ACCESS:   51543947  HIT:   51543364  MISS:        583  HIT %:    99.9989  MISS %: 0.00113107   MPKI: 0.00193315
L1I RFO       ACCESS:          0  HIT:          0  MISS:          0  HIT %:       -nan  MISS %:       -nan   MPKI: 0
L1I PREFETCH  ACCESS:          0  HIT:          0  MISS:          0  HIT %:       -nan  MISS %:       -nan   MPKI: 0
L1I WRITEBACK ACCESS:          0  HIT:          0  MISS:          0  HIT %:       -nan  MISS %:       -nan   MPKI: 0
L2C TOTAL     ACCESS:    3108745  HIT:    2187350  MISS:     921395  HIT %:    70.3612  MISS %:    29.6388   MPKI: 3.05522
L2C LOAD      ACCESS:    1357975  HIT:     726809  MISS:     631166  HIT %:    53.5215  MISS %:    46.4785   MPKI: 2.09286
L2C RFO       ACCESS:     247374  HIT:     117829  MISS:     129545  HIT %:    47.6319  MISS %:    52.3681   MPKI: 0.429553
L2C PREFETCH  ACCESS:     233429  HIT:     159681  MISS:      73748  HIT %:    68.4067  MISS %:    31.5933   MPKI: 0.244538
L2C WRITEBACK ACCESS:    1107761  HIT:    1069429  MISS:      38332  HIT %:    96.5397  MISS %:    3.46031   MPKI: 0.127104
PSCL5 TOTAL     ACCESS:     162035  HIT:     162035  MISS:          0  HIT %:        100  MISS %:          0   MPKI: 0
PSCL5 LOAD      ACCESS:          0  HIT:          0  MISS:          0  HIT %:       -nan  MISS %:       -nan   MPKI: 0
PSCL5 RFO       ACCESS:          0  HIT:          0  MISS:          0  HIT %:       -nan  MISS %:       -nan   MPKI: 0
PSCL5 PREFETCH  ACCESS:          0  HIT:          0  MISS:          0  HIT %:       -nan  MISS %:       -nan   MPKI: 0
PSCL5 WRITEBACK ACCESS:          0  HIT:          0  MISS:          0  HIT %:       -nan  MISS %:       -nan   MPKI: 0
PSCL4 TOTAL     ACCESS:     162035  HIT:     162035  MISS:          0  HIT %:        100  MISS %:          0   MPKI: 0
PSCL4 LOAD      ACCESS:          0  HIT:          0  MISS:          0  HIT %:       -nan  MISS %:       -nan   MPKI: 0
PSCL4 RFO       ACCESS:          0  HIT:          0  MISS:          0  HIT %:       -nan  MISS %:       -nan   MPKI: 0
PSCL4 PREFETCH  ACCESS:          0  HIT:          0  MISS:          0  HIT %:       -nan  MISS %:       -nan   MPKI: 0
PSCL4 WRITEBACK ACCESS:          0  HIT:          0  MISS:          0  HIT %:       -nan  MISS %:       -nan   MPKI: 0
PSCL3 TOTAL     ACCESS:     162035  HIT:     162035  MISS:          0  HIT %:        100  MISS %:          0   MPKI: 0
PSCL3 LOAD      ACCESS:          0  HIT:          0  MISS:          0  HIT %:       -nan  MISS %:       -nan   MPKI: 0
PSCL3 RFO       ACCESS:          0  HIT:          0  MISS:          0  HIT %:       -nan  MISS %:       -nan   MPKI: 0
PSCL3 PREFETCH  ACCESS:          0  HIT:          0  MISS:          0  HIT %:       -nan  MISS %:       -nan   MPKI: 0
PSCL3 WRITEBACK ACCESS:          0  HIT:          0  MISS:          0  HIT %:       -nan  MISS %:       -nan   MPKI: 0
PSCL2 TOTAL     ACCESS:     162001  HIT:     161864  MISS:        137  HIT %:    99.9154  MISS %:  0.0845674   MPKI: 0.000454273
PSCL2 LOAD      ACCESS:          0  HIT:          0  MISS:          0  HIT %:       -nan  MISS %:       -nan   MPKI: 0
PSCL2 RFO       ACCESS:          0  HIT:          0  MISS:          0  HIT %:       -nan  MISS %:       -nan   MPKI: 0
PSCL2 PREFETCH  ACCESS:          0  HIT:          0  MISS:          0  HIT %:       -nan  MISS %:       -nan   MPKI: 0
PSCL2 WRITEBACK ACCESS:          0  HIT:          0  MISS:          0  HIT %:       -nan  MISS %:       -nan   MPKI: 0
LLC TOTAL     ACCESS:    1448305  HIT:     769021  MISS:     679284  HIT %:     53.098  MISS %:     46.902   MPKI: 2.25241
LLC LOAD      ACCESS:     618329  HIT:     236943  MISS:     381386  HIT %:    38.3199  MISS %:    61.6801   MPKI: 1.26462
LLC RFO       ACCESS:     129494  HIT:      27993  MISS:     101501  HIT %:    21.6172  MISS %:    78.3828   MPKI: 0.336563
LLC PREFETCH  ACCESS:      86635  HIT:       9464  MISS:      77171  HIT %:     10.924  MISS %:     89.076   MPKI: 0.255888
LLC WRITEBACK ACCESS:     565243  HIT:     458282  MISS:     106961  HIT %:     81.077  MISS %:     18.923   MPKI: 0.354668

RAW hits: 4041332
Loads Generated: 71918162
Loads sent to L1D: 67876829
Stores Generated: 26602071
Stores sent to L1D: 26602070

CPU 3 cumulative IPC: 0.845311 instructions: 343444725 cycles: 406294189
ITLB TOTAL     ACCESS:   61701397  HIT:   61701397  MISS:          0  HIT %:        100  MISS %:          0   MPKI: 0
ITLB LOAD      ACCESS:          0  HIT:          0  MISS:          0  HIT %:       -nan  MISS %:       -nan   MPKI: 0
ITLB RFO       ACCESS:          0  HIT:          0  MISS:          0  HIT %:       -nan  MISS %:       -nan   MPKI: 0
ITLB PREFETCH  ACCESS:          0  HIT:          0  MISS:          0  HIT %:       -nan  MISS %:       -nan   MPKI: 0
ITLB WRITEBACK ACCESS:          0  HIT:          0  MISS:          0  HIT %:       -nan  MISS %:       -nan   MPKI: 0
DTLB TOTAL     ACCESS:   44898687  HIT:   44888166  MISS:      10521  HIT %:    99.9766  MISS %:  0.0234328   MPKI: 0.0306338
DTLB LOAD      ACCESS:          0  HIT:          0  MISS:          0  HIT %:       -nan  MISS %:       -nan   MPKI: 0
DTLB RFO       ACCESS:          0  HIT:          0  MISS:          0  HIT %:       -nan  MISS %:       -nan   MPKI: 0
DTLB PREFETCH  ACCESS:          0  HIT:          0  MISS:          0  HIT %:       -nan  MISS %:       -nan   MPKI: 0
DTLB WRITEBACK ACCESS:          0  HIT:          0  MISS:          0  HIT %:       -nan  MISS %:       -nan   MPKI: 0
STLB TOTAL     ACCESS:    7316423  HIT:    7309453  MISS:       6970  HIT %:    99.9047  MISS %:  0.0952651   MPKI: 0.0202944
STLB LOAD      ACCESS:          0  HIT:          0  MISS:          0  HIT %:       -nan  MISS %:       -nan   MPKI: 0
STLB RFO       ACCESS:          0  HIT:          0  MISS:          0  HIT %:       -nan  MISS %:       -nan   MPKI: 0
STLB PREFETCH  ACCESS:          0  HIT:          0  MISS:          0  HIT %:       -nan  MISS %:       -nan   MPKI: 0
STLB WRITEBACK ACCESS:          0  HIT:          0  MISS:          0  HIT %:       -nan  MISS %:       -nan   MPKI: 0
L1D TOTAL     ACCESS:   85033929  HIT:   84588183  MISS:     445746  HIT %:    99.4758  MISS %:   0.524198   MPKI: 1.29787
L1D LOAD      ACCESS:   33085285  HIT:   33081998  MISS:       3287  HIT %:    99.9901  MISS %: 0.00993493   MPKI: 0.00957068
L1D RFO       ACCESS:   17481609  HIT:   17390286  MISS:      91323  HIT %:    99.4776  MISS %:   0.522395   MPKI: 0.265903
L1D PREFETCH  ACCESS:   34467035  HIT:   34115899  MISS:     351136  HIT %:    98.9812  MISS %:    1.01876   MPKI: 1.02239
L1D WRITEBACK ACCESS:          0  HIT:          0  MISS:          0  HIT %:       -nan  MISS %:       -nan   MPKI: 0
L1I TOTAL     ACCESS:   66029156  HIT:   66029156  MISS:          0  HIT %:        100  MISS %:          0   MPKI: 0
L1I LOAD      ACCESS:   66029156  HIT:   66029156  MISS:          0  HIT %:        100  MISS %:          0   MPKI: 0
L1I RFO       ACCESS:          0  HIT:          0  MISS:          0  HIT %:       -nan  MISS %:       -nan   MPKI: 0
L1I PREFETCH  ACCESS:          0  HIT:          0  MISS:          0  HIT %:       -nan  MISS %:       -nan   MPKI: 0
L1I WRITEBACK ACCESS:          0  HIT:          0  MISS:          0  HIT %:       -nan  MISS %:       -nan   MPKI: 0
L2C TOTAL     ACCESS:    7032383  HIT:    6578163  MISS:     454220  HIT %:     93.541  MISS %:    6.45898   MPKI: 1.32254
L2C LOAD      ACCESS:       2898  HIT:         89  MISS:       2809  HIT %:    3.07108  MISS %:    96.9289   MPKI: 0.0081789
L2C RFO       ACCESS:      91323  HIT:          0  MISS:      91323  HIT %:          0  MISS %:        100   MPKI: 0.265903
L2C PREFETCH  ACCESS:    6394510  HIT:    6042888  MISS:     351622  HIT %:    94.5012  MISS %:    5.49881   MPKI: 1.02381
L2C WRITEBACK ACCESS:      91329  HIT:      83787  MISS:       7542  HIT %:    91.7419  MISS %:    8.25806   MPKI: 0.0219599
PSCL5 TOTAL     ACCESS:     452323  HIT:     452323  MISS:          0  HIT %:        100  MISS %:          0   MPKI: 0
PSCL5 LOAD      ACCESS:          0  HIT:          0  MISS:          0  HIT %:       -nan  MISS %:       -nan   MPKI: 0
PSCL5 RFO       ACCESS:          0  HIT:          0  MISS:          0  HIT %:       -nan  MISS %:       -nan   MPKI: 0
PSCL5 PREFETCH  ACCESS:          0  HIT:          0  MISS:          0  HIT %:       -nan  MISS %:       -nan   MPKI: 0
PSCL5 WRITEBACK ACCESS:          0  HIT:          0  MISS:          0  HIT %:       -nan  MISS %:       -nan   MPKI: 0
PSCL4 TOTAL     ACCESS:     452323  HIT:     452323  MISS:          0  HIT %:        100  MISS %:          0   MPKI: 0
PSCL4 LOAD      ACCESS:          0  HIT:          0  MISS:          0  HIT %:       -nan  MISS %:       -nan   MPKI: 0
PSCL4 RFO       ACCESS:          0  HIT:          0  MISS:          0  HIT %:       -nan  MISS %:       -nan   MPKI: 0
PSCL4 PREFETCH  ACCESS:          0  HIT:          0  MISS:          0  HIT %:       -nan  MISS %:       -nan   MPKI: 0
PSCL4 WRITEBACK ACCESS:          0  HIT:          0  MISS:          0  HIT %:       -nan  MISS %:       -nan   MPKI: 0
PSCL3 TOTAL     ACCESS:     452323  HIT:     452323  MISS:          0  HIT %:        100  MISS %:          0   MPKI: 0
PSCL3 LOAD      ACCESS:          0  HIT:          0  MISS:          0  HIT %:       -nan  MISS %:       -nan   MPKI: 0
PSCL3 RFO       ACCESS:          0  HIT:          0  MISS:          0  HIT %:       -nan  MISS %:       -nan   MPKI: 0
PSCL3 PREFETCH  ACCESS:          0  HIT:          0  MISS:          0  HIT %:       -nan  MISS %:       -nan   MPKI: 0
PSCL3 WRITEBACK ACCESS:          0  HIT:          0  MISS:          0  HIT %:       -nan  MISS %:       -nan   MPKI: 0
PSCL2 TOTAL     ACCESS:     451639  HIT:     451631  MISS:          8  HIT %:    99.9982  MISS %: 0.00177133   MPKI: 2.32934e-05
PSCL2 LOAD      ACCESS:          0  HIT:          0  MISS:          0  HIT %:       -nan  MISS %:       -nan   MPKI: 0
PSCL2 RFO       ACCESS:          0  HIT:          0  MISS:          0  HIT %:       -nan  MISS %:       -nan   MPKI: 0
PSCL2 PREFETCH  ACCESS:          0  HIT:          0  MISS:          0  HIT %:       -nan  MISS %:       -nan   MPKI: 0
PSCL2 WRITEBACK ACCESS:          0  HIT:          0  MISS:          0  HIT %:       -nan  MISS %:       -nan   MPKI: 0
LLC TOTAL     ACCESS:     537948  HIT:      44276  MISS:     493672  HIT %:    8.23054  MISS %:    91.7695   MPKI: 1.43741
LLC LOAD      ACCESS:       2670  HIT:          0  MISS:       2670  HIT %:          0  MISS %:        100   MPKI: 0.00777418
LLC RFO       ACCESS:      91323  HIT:          0  MISS:      91323  HIT %:          0  MISS %:        100   MPKI: 0.265903
LLC PREFETCH  ACCESS:     351761  HIT:          1  MISS:     351760  HIT %: 0.000284284  MISS %:    99.9997   MPKI: 1.02421
LLC WRITEBACK ACCESS:      91270  HIT:      44234  MISS:      47036  HIT %:     48.465  MISS %:     51.535   MPKI: 0.136954

RAW hits: 4595531
Loads Generated: 48286561
Loads sent to L1D: 43691030
Stores Generated: 17533812
Stores sent to L1D: 17533812

Region of Interest Statistics

CPU 0 cumulative IPC: 0.492254 instructions: 200000001 cycles: 406294188
ITLB TOTAL     ACCESS:   33468436  HIT:   33468424  MISS:         12  HIT %:        100  MISS %: 3.58547e-05   MPKI: 6e-05
ITLB LOAD TRANSLATION ACCESS:   33468436  HIT:   33468424  MISS:         12  HIT %:        100  MISS %: 3.58547e-05   MPKI: 6e-05
ITLB PREFETCH  REQUESTED:          0  ISSUED:          0  USEFUL:          0  USELESS:          0
ITLB USEFUL LOAD PREFETCHES:          0 PREFETCH ISSUED TO LOWER LEVEL:          0  ACCURACY: -nan
ITLB TIMELY PREFETCHES:          0 LATE PREFETCHES: 0 DROPPED PREFETCHES: 0
ITLB PREFETCHES SAME FILL-ORIGIN LEVEL: 0 DIFFERENT FILL-ORIGIN LEVEL: 0
ITLB AVERAGE MISS LATENCY: 333.917 cycles
ITLB RQ	ACCESS:   36703500	FORWARD:          0	MERGED:    3235062	TO_CACHE:   33468438

DTLB TOTAL     ACCESS:   40510400  HIT:   39404899  MISS:    1105501  HIT %:    97.2711  MISS %:    2.72893   MPKI: 5.5275
DTLB LOAD TRANSLATION ACCESS:   40510400  HIT:   39404899  MISS:    1105501  HIT %:    97.2711  MISS %:    2.72893   MPKI: 5.5275
DTLB PREFETCH  REQUESTED:          0  ISSUED:          0  USEFUL:          0  USELESS:          0
DTLB USEFUL LOAD PREFETCHES:          0 PREFETCH ISSUED TO LOWER LEVEL:          0  ACCURACY: -nan
DTLB TIMELY PREFETCHES:          0 LATE PREFETCHES: 0 DROPPED PREFETCHES: 0
DTLB PREFETCHES SAME FILL-ORIGIN LEVEL: 0 DIFFERENT FILL-ORIGIN LEVEL: 0
DTLB AVERAGE MISS LATENCY: 18.103 cycles
DTLB RQ	ACCESS:   46773891	FORWARD:          0	MERGED:    6042206	TO_CACHE:   40731685

STLB TOTAL     ACCESS:   11713382  HIT:   11536339  MISS:     177043  HIT %:    98.4885  MISS %:    1.51146   MPKI: 0.885215
STLB LOAD TRANSLATION ACCESS:    1105513  HIT:     968985  MISS:     136528  HIT %:    87.6503  MISS %:    12.3497   MPKI: 0.68264
STLB TRANSLATION FROM L1D PREFETCHER ACCESS:   10607869  HIT:   10567354  MISS:      40515  HIT %:    99.6181  MISS %:   0.381933   MPKI: 0.202575
STLB PREFETCH  REQUESTED:          0  ISSUED:          0  USEFUL:      38846  USELESS:       1666
STLB USEFUL LOAD PREFETCHES:      38846 PREFETCH ISSUED TO LOWER LEVEL:          0  ACCURACY: inf
STLB TIMELY PREFETCHES:      38846 LATE PREFETCHES: 1367 DROPPED PREFETCHES: 14022
STLB PREFETCHES SAME FILL-ORIGIN LEVEL: 0 DIFFERENT FILL-ORIGIN LEVEL: 0
STLB AVERAGE MISS LATENCY: 67.0356 cycles
STLB RQ	ACCESS:   47539524	FORWARD:          0	MERGED:   35804546	TO_CACHE:   11734978

STLB Hit, L1D data hit: 0
STLB Hit, L2C data hit: 0
STLB Hit, LLC data hit: 0
STLB Hit, LLC data miss: 0
STLB STLB hints to L2: 0
L1D TOTAL     ACCESS:   77393769  HIT:   69561648  MISS:    7832121  HIT %:    89.8802  MISS %:    10.1198   MPKI: 39.1606
L1D LOAD      ACCESS:   31016082  HIT:   26451353  MISS:    4564729  HIT %:    85.2827  MISS %:    14.7173   MPKI: 22.8236
L1D RFO       ACCESS:   11340414  HIT:   10066592  MISS:    1273822  HIT %:    88.7674  MISS %:    11.2326   MPKI: 6.36911
L1D PREFETCH  ACCESS:   35037273  HIT:   33043703  MISS:    1993570  HIT %:    94.3101  MISS %:    5.68985   MPKI: 9.96785
L1D PREFETCH  REQUESTED:  113447644  ISSUED:  109853151  USEFUL:    1678777  USELESS:     314968
L1D USEFUL LOAD PREFETCHES:    1678777 PREFETCH ISSUED TO LOWER LEVEL:   11156812  ACCURACY: 15.0471
L1D TIMELY PREFETCHES:    1678777 LATE PREFETCHES: 53878 DROPPED PREFETCHES: 48546
L1D PREFETCHES SAME FILL-ORIGIN LEVEL: 2048193 DIFFERENT FILL-ORIGIN LEVEL: 9108619
L1D AVERAGE MISS LATENCY: 105.353 cycles
L1D RQ	ACCESS:   55525344	FORWARD:          0	MERGED:   23849285	TO_CACHE:   31561608
L1D WQ	ACCESS:   15278735	FORWARD:     115129	MERGED:      66452	TO_CACHE:   15212283
L1D PQ	ACCESS:   63419140	FORWARD:          0	MERGED:   16984451	TO_CACHE:   46434011

L1D UNIQUE REGIONS ACCESSED: 0
L1D REGIONS CONFLICTS: 0
L1D Cross Page Prefetch Requests: 6743563
L1D Same Page Prefetch Requests: 78542972
L1D ROI Sum of L1D PQ occupancy: 632706900
L1D PREFETCHES PUSHED FROM L2C: 0
L1I TOTAL     ACCESS:   36703040  HIT:   36701743  MISS:       1297  HIT %:    99.9965  MISS %: 0.00353377   MPKI: 0.006485
L1I LOAD      ACCESS:   36703040  HIT:   36701743  MISS:       1297  HIT %:    99.9965  MISS %: 0.00353377   MPKI: 0.006485
L1I PREFETCH  REQUESTED:          0  ISSUED:          0  USEFUL:          0  USELESS:          0
L1I USEFUL LOAD PREFETCHES:          0 PREFETCH ISSUED TO LOWER LEVEL:          0  ACCURACY: -nan
L1I TIMELY PREFETCHES:          0 LATE PREFETCHES: 0 DROPPED PREFETCHES: 0
L1I PREFETCHES SAME FILL-ORIGIN LEVEL: 0 DIFFERENT FILL-ORIGIN LEVEL: 0
L1I AVERAGE MISS LATENCY: 235.36 cycles
L1I RQ	ACCESS:   53587845	FORWARD:          0	MERGED:   16884345	TO_CACHE:   36703500

BTB TOTAL     ACCESS:   30901764  HIT:   30899707  MISS:       2057  HIT %:    99.9933  MISS %: 0.00665658   MPKI: 0.010285
BTB BRANCH_DIRECT_JUMP	ACCESS:     749458  HIT:     749307  MISS:        151
BTB BRANCH_INDIRECT	ACCESS:         60  HIT:         53  MISS:          7
BTB BRANCH_CONDITIONAL	ACCESS:   29204188  HIT:   29203763  MISS:        425
BTB BRANCH_DIRECT_CALL	ACCESS:     473691  HIT:     473554  MISS:        137
BTB BRANCH_INDIRECT_CALL	ACCESS:        337  HIT:        312  MISS:         25
BTB BRANCH_RETURN	ACCESS:     474030  HIT:     472718  MISS:       1312
BTB BRANCH_OTHER ACCESS:          0  HIT:          0  MISS:          0

L2C TOTAL     ACCESS:   18959112  HIT:   11700844  MISS:    7258268  HIT %:    61.7162  MISS %:    38.2838   MPKI: 36.2913
L2C LOAD      ACCESS:    4511696  HIT:    2047033  MISS:    2464663  HIT %:    45.3717  MISS %:    54.6283   MPKI: 12.3233
L2C DATA LOAD MPKI: 12.3168
L2C INSTRUCTION LOAD MPKI: 0.006485
L2C RFO       ACCESS:    1273764  HIT:     161329  MISS:    1112435  HIT %:    12.6655  MISS %:    87.3345   MPKI: 5.56217
L2C PREFETCH  ACCESS:    9814221  HIT:    6301745  MISS:    3512476  HIT %:    64.2103  MISS %:    35.7897   MPKI: 17.5624
L2C DATA PREFETCH MPKI: 17.5624
L2C INSTRUCTION PREFETCH MPKI: 0
L2C WRITEBACK ACCESS:    3166829  HIT:    3047551  MISS:     119278  HIT %:    96.2335  MISS %:    3.76648   MPKI: 0.59639
L2C LOAD TRANSLATION ACCESS:     136693  HIT:      93853  MISS:      42840  HIT %:    68.6597  MISS %:    31.3403   MPKI: 0.2142
L2C TRANSLATION FROM L1D PREFETCHER ACCESS:      55909  HIT:      49333  MISS:       6576  HIT %:     88.238  MISS %:     11.762   MPKI: 0.03288
L2C PREFETCH  REQUESTED:          0  ISSUED:          0  USEFUL:     800009  USELESS:    2721729
L2C USEFUL LOAD PREFETCHES:     800009 PREFETCH ISSUED TO LOWER LEVEL:    3632667  ACCURACY: 22.0226
L2C TIMELY PREFETCHES:     800009 LATE PREFETCHES: 120191 DROPPED PREFETCHES: 0
L2C PREFETCHES SAME FILL-ORIGIN LEVEL: 2304836 DIFFERENT FILL-ORIGIN LEVEL: 0
L2C AVERAGE MISS LATENCY: 160.851 cycles
L2C RQ	ACCESS:    5978571	FORWARD:          0	MERGED:          0	TO_CACHE:    5978061
L2C WQ	ACCESS:    3166829	FORWARD:        543	MERGED:          0	TO_CACHE:    3166829
L2C PQ	ACCESS:   11120736	FORWARD:          0	MERGED:      42344	TO_CACHE:   11078359

L2C Instructions Evicting Data 1290
L2C Translations Evicting Data 48919
L2C Data Evicting Data 7039156
L2C Instructions Evicting Instructions 0
L2C Translations Evicting Instructions 6
L2C Data Evicting Instructions 1273
L2C Instructions Evicting Translations 7
L2C Translations Evicting Translations 491
L2C Data Evicting Translations 47848
L2C Dense regions hint from L2: 0
PSCL5 TOTAL     ACCESS:     191669  HIT:     191669  MISS:          0  HIT %:        100  MISS %:          0   MPKI: 0
PSCL5 LOAD TRANSLATION ACCESS:     135765  HIT:     135765  MISS:          0  HIT %:        100  MISS %:          0   MPKI: 0
PSCL5 TRANSLATION FROM L1D PREFETCHER ACCESS:      55904  HIT:      55904  MISS:          0  HIT %:        100  MISS %:          0   MPKI: 0
PSCL5 PREFETCH  REQUESTED:          0  ISSUED:          0  USEFUL:          0  USELESS:          0
PSCL5 USEFUL LOAD PREFETCHES:          0 PREFETCH ISSUED TO LOWER LEVEL:          0  ACCURACY: -nan
PSCL5 TIMELY PREFETCHES:          0 LATE PREFETCHES: 0 DROPPED PREFETCHES: 0
PSCL5 PREFETCHES SAME FILL-ORIGIN LEVEL: 0 DIFFERENT FILL-ORIGIN LEVEL: 0

PSCL4 TOTAL     ACCESS:     191669  HIT:     191669  MISS:          0  HIT %:        100  MISS %:          0   MPKI: 0
PSCL4 LOAD TRANSLATION ACCESS:     135765  HIT:     135765  MISS:          0  HIT %:        100  MISS %:          0   MPKI: 0
PSCL4 TRANSLATION FROM L1D PREFETCHER ACCESS:      55904  HIT:      55904  MISS:          0  HIT %:        100  MISS %:          0   MPKI: 0
PSCL4 PREFETCH  REQUESTED:          0  ISSUED:          0  USEFUL:          0  USELESS:          0
PSCL4 USEFUL LOAD PREFETCHES:          0 PREFETCH ISSUED TO LOWER LEVEL:          0  ACCURACY: -nan
PSCL4 TIMELY PREFETCHES:          0 LATE PREFETCHES: 0 DROPPED PREFETCHES: 0
PSCL4 PREFETCHES SAME FILL-ORIGIN LEVEL: 0 DIFFERENT FILL-ORIGIN LEVEL: 0

PSCL3 TOTAL     ACCESS:     191669  HIT:     191669  MISS:          0  HIT %:        100  MISS %:          0   MPKI: 0
PSCL3 LOAD TRANSLATION ACCESS:     135765  HIT:     135765  MISS:          0  HIT %:        100  MISS %:          0   MPKI: 0
PSCL3 TRANSLATION FROM L1D PREFETCHER ACCESS:      55904  HIT:      55904  MISS:          0  HIT %:        100  MISS %:          0   MPKI: 0
PSCL3 PREFETCH  REQUESTED:          0  ISSUED:          0  USEFUL:          0  USELESS:          0
PSCL3 USEFUL LOAD PREFETCHES:          0 PREFETCH ISSUED TO LOWER LEVEL:          0  ACCURACY: -nan
PSCL3 TIMELY PREFETCHES:          0 LATE PREFETCHES: 0 DROPPED PREFETCHES: 0
PSCL3 PREFETCHES SAME FILL-ORIGIN LEVEL: 0 DIFFERENT FILL-ORIGIN LEVEL: 0

PSCL2 TOTAL     ACCESS:     191669  HIT:     190724  MISS:        945  HIT %:     99.507  MISS %:   0.493037   MPKI: 0.004725
PSCL2 LOAD TRANSLATION ACCESS:     135770  HIT:     134825  MISS:        945  HIT %:     99.304  MISS %:    0.69603   MPKI: 0.004725
PSCL2 TRANSLATION FROM L1D PREFETCHER ACCESS:      55899  HIT:      55899  MISS:          0  HIT %:        100  MISS %:          0   MPKI: 0
PSCL2 PREFETCH  REQUESTED:          0  ISSUED:          0  USEFUL:          0  USELESS:          0
PSCL2 USEFUL LOAD PREFETCHES:          0 PREFETCH ISSUED TO LOWER LEVEL:          0  ACCURACY: -nan
PSCL2 TIMELY PREFETCHES:          0 LATE PREFETCHES: 0 DROPPED PREFETCHES: 0
PSCL2 PREFETCHES SAME FILL-ORIGIN LEVEL: 0 DIFFERENT FILL-ORIGIN LEVEL: 0

LLC TOTAL     ACCESS:    9419690  HIT:    5731281  MISS:    3688409  HIT %:    60.8436  MISS %:    39.1564   MPKI: 18.442
LLC LOAD      ACCESS:    2344452  HIT:    1323611  MISS:    1020841  HIT %:    56.4572  MISS %:    43.5428   MPKI: 5.1042
LLC RFO       ACCESS:    1112430  HIT:     570399  MISS:     542031  HIT %:     51.275  MISS %:     48.725   MPKI: 2.71015
LLC PREFETCH  ACCESS:    3632658  HIT:    1539650  MISS:    2093008  HIT %:    42.3836  MISS %:    57.6164   MPKI: 10.465
LLC WRITEBACK ACCESS:    2280734  HIT:    2269436  MISS:      11298  HIT %:    99.5046  MISS %:   0.495367   MPKI: 0.05649
LLC LOAD TRANSLATION ACCESS:      42840  HIT:      25357  MISS:      17483  HIT %:      59.19  MISS %:      40.81   MPKI: 0.087415
LLC TRANSLATION FROM L1D PREFETCHER ACCESS:       6576  HIT:       2828  MISS:       3748  HIT %:    43.0049  MISS %:    56.9951   MPKI: 0.01874
LLC PREFETCH  REQUESTED:          0  ISSUED:          0  USEFUL:     130110  USELESS:    3532370
LLC USEFUL LOAD PREFETCHES:     130110 PREFETCH ISSUED TO LOWER LEVEL:    3644629  ACCURACY: 3.56991
LLC TIMELY PREFETCHES:     130110 LATE PREFETCHES: 0 DROPPED PREFETCHES: 0
LLC PREFETCHES SAME FILL-ORIGIN LEVEL: 0 DIFFERENT FILL-ORIGIN LEVEL: 0
LLC AVERAGE MISS LATENCY: 580.386 cycles
LLC RQ	ACCESS:    5027223	FORWARD:          0	MERGED:          0	TO_CACHE:    5027197
LLC WQ	ACCESS:    3508220	FORWARD:         35	MERGED:          0	TO_CACHE:    3508220
LLC PQ	ACCESS:    5180726	FORWARD:          0	MERGED:          0	TO_CACHE:    5180717

LLC Dense regions hint to LLC: 0

RAW hits: 1292926
Loads Generated: 56818273
Loads sent to L1D: 55525344
Stores Generated: 15278735
Stores sent to L1D: 15278735
Major fault: 0 Minor fault: 12934
Allocated PAGES: 48674

CPU 1 cumulative IPC: 0.632193 instructions: 200000000 cycles: 316359305
ITLB TOTAL     ACCESS:   33891882  HIT:   33891880  MISS:          2  HIT %:        100  MISS %: 5.90112e-06   MPKI: 1e-05
ITLB LOAD TRANSLATION ACCESS:   33891882  HIT:   33891880  MISS:          2  HIT %:        100  MISS %: 5.90112e-06   MPKI: 1e-05
ITLB PREFETCH  REQUESTED:          0  ISSUED:          0  USEFUL:          0  USELESS:          0
ITLB USEFUL LOAD PREFETCHES:          0 PREFETCH ISSUED TO LOWER LEVEL:          0  ACCURACY: -nan
ITLB TIMELY PREFETCHES:          0 LATE PREFETCHES: 0 DROPPED PREFETCHES: 0
ITLB PREFETCHES SAME FILL-ORIGIN LEVEL: 0 DIFFERENT FILL-ORIGIN LEVEL: 0
ITLB AVERAGE MISS LATENCY: 285.5 cycles
ITLB RQ	ACCESS:   55163024	FORWARD:          0	MERGED:   11746684	TO_CACHE:   43416340

DTLB TOTAL     ACCESS:   53887436  HIT:   53857831  MISS:      29605  HIT %:    99.9451  MISS %:  0.0549386   MPKI: 0.148025
DTLB LOAD TRANSLATION ACCESS:   53887436  HIT:   53857831  MISS:      29605  HIT %:    99.9451  MISS %:  0.0549386   MPKI: 0.148025
DTLB PREFETCH  REQUESTED:          0  ISSUED:          0  USEFUL:          0  USELESS:          0
DTLB USEFUL LOAD PREFETCHES:          0 PREFETCH ISSUED TO LOWER LEVEL:          0  ACCURACY: -nan
DTLB TIMELY PREFETCHES:          0 LATE PREFETCHES: 0 DROPPED PREFETCHES: 0
DTLB PREFETCHES SAME FILL-ORIGIN LEVEL: 0 DIFFERENT FILL-ORIGIN LEVEL: 0
DTLB AVERAGE MISS LATENCY: 255.649 cycles
DTLB RQ	ACCESS:   78904921	FORWARD:          0	MERGED:    9788824	TO_CACHE:   69116097

STLB TOTAL     ACCESS:    5232471  HIT:    5203637  MISS:      28834  HIT %:    99.4489  MISS %:   0.551059   MPKI: 0.14417
STLB LOAD TRANSLATION ACCESS:      29607  HIT:      10059  MISS:      19548  HIT %:    33.9751  MISS %:    66.0249   MPKI: 0.09774
STLB TRANSLATION FROM L1D PREFETCHER ACCESS:    5202864  HIT:    5193578  MISS:       9286  HIT %:    99.8215  MISS %:   0.178479   MPKI: 0.04643
STLB PREFETCH  REQUESTED:          0  ISSUED:          0  USEFUL:      13416  USELESS:          3
STLB USEFUL LOAD PREFETCHES:      13416 PREFETCH ISSUED TO LOWER LEVEL:          0  ACCURACY: inf
STLB TIMELY PREFETCHES:      13416 LATE PREFETCHES: 919 DROPPED PREFETCHES: 36736
STLB PREFETCHES SAME FILL-ORIGIN LEVEL: 0 DIFFERENT FILL-ORIGIN LEVEL: 0
STLB AVERAGE MISS LATENCY: 310.179 cycles
STLB RQ	ACCESS:   31531104	FORWARD:          0	MERGED:   24717239	TO_CACHE:    6813865

STLB Hit, L1D data hit: 0
STLB Hit, L2C data hit: 0
STLB Hit, LLC data hit: 0
STLB Hit, LLC data miss: 0
STLB STLB hints to L2: 0
L1D TOTAL     ACCESS:   79403905  HIT:   78180272  MISS:    1223633  HIT %:     98.459  MISS %:    1.54102   MPKI: 6.11817
L1D LOAD      ACCESS:   37742125  HIT:   37507362  MISS:     234763  HIT %:     99.378  MISS %:   0.622019   MPKI: 1.17382
L1D RFO       ACCESS:   21502456  HIT:   21088355  MISS:     414101  HIT %:    98.0742  MISS %:    1.92583   MPKI: 2.0705
L1D PREFETCH  ACCESS:   20159324  HIT:   19584555  MISS:     574769  HIT %:    97.1489  MISS %:    2.85113   MPKI: 2.87385
L1D PREFETCH  REQUESTED:   84417303  ISSUED:   67176663  USEFUL:     755487  USELESS:      35458
L1D USEFUL LOAD PREFETCHES:     755487 PREFETCH ISSUED TO LOWER LEVEL:    6612711  ACCURACY: 11.4248
L1D TIMELY PREFETCHES:     755487 LATE PREFETCHES: 31542 DROPPED PREFETCHES: 96044
L1D PREFETCHES SAME FILL-ORIGIN LEVEL: 836042 DIFFERENT FILL-ORIGIN LEVEL: 5776669
L1D AVERAGE MISS LATENCY: 423.707 cycles
L1D RQ	ACCESS:   61590758	FORWARD:          0	MERGED:   12848092	TO_CACHE:   48706217
L1D WQ	ACCESS:   32021285	FORWARD:      36449	MERGED:    1822581	TO_CACHE:   30198704
L1D PQ	ACCESS:   35686720	FORWARD:          0	MERGED:    4196777	TO_CACHE:   31489943

L1D UNIQUE REGIONS ACCESSED: 0
L1D REGIONS CONFLICTS: 0
L1D Cross Page Prefetch Requests: 2437840
L1D Same Page Prefetch Requests: 41274000
L1D ROI Sum of L1D PQ occupancy: 567393162
L1D PREFETCHES PUSHED FROM L2C: 0
L1I TOTAL     ACCESS:   43029985  HIT:   43029949  MISS:         36  HIT %:    99.9999  MISS %: 8.36626e-05   MPKI: 0.00018
L1I LOAD      ACCESS:   43029985  HIT:   43029949  MISS:         36  HIT %:    99.9999  MISS %: 8.36626e-05   MPKI: 0.00018
L1I PREFETCH  REQUESTED:          0  ISSUED:          0  USEFUL:          0  USELESS:          0
L1I USEFUL LOAD PREFETCHES:          0 PREFETCH ISSUED TO LOWER LEVEL:          0  ACCURACY: -nan
L1I TIMELY PREFETCHES:          0 LATE PREFETCHES: 0 DROPPED PREFETCHES: 0
L1I PREFETCHES SAME FILL-ORIGIN LEVEL: 0 DIFFERENT FILL-ORIGIN LEVEL: 0
L1I AVERAGE MISS LATENCY: 295.111 cycles
L1I RQ	ACCESS:   72450943	FORWARD:          0	MERGED:   17287919	TO_CACHE:   55163024

BTB TOTAL     ACCESS:   12994696  HIT:   11542195  MISS:    1452501  HIT %:    88.8224  MISS %:    11.1776   MPKI: 7.2625
BTB BRANCH_DIRECT_JUMP	ACCESS:    1452478  HIT:    1452470  MISS:          8
BTB BRANCH_INDIRECT	ACCESS:          0  HIT:          0  MISS:          0
BTB BRANCH_CONDITIONAL	ACCESS:    5732421  HIT:    5732392  MISS:         29
BTB BRANCH_DIRECT_CALL	ACCESS:    2904899  HIT:    2904889  MISS:         10
BTB BRANCH_INDIRECT_CALL	ACCESS:          0  HIT:          0  MISS:          0
BTB BRANCH_RETURN	ACCESS:    2904898  HIT:    1452444  MISS:    1452454
BTB BRANCH_OTHER ACCESS:          0  HIT:          0  MISS:          0

L2C TOTAL     ACCESS:    3549862  HIT:    2273496  MISS:    1276366  HIT %:    64.0446  MISS %:    35.9554   MPKI: 6.38183
L2C LOAD      ACCESS:     212300  HIT:     133474  MISS:      78826  HIT %:    62.8705  MISS %:    37.1295   MPKI: 0.39413
L2C DATA LOAD MPKI: 0.39395
L2C INSTRUCTION LOAD MPKI: 0.00018
L2C RFO       ACCESS:     414101  HIT:          0  MISS:     414101  HIT %:          0  MISS %:        100   MPKI: 2.0705
L2C PREFETCH  ACCESS:    2449150  HIT:    1690809  MISS:     758341  HIT %:    69.0366  MISS %:    30.9634   MPKI: 3.7917
L2C DATA PREFETCH MPKI: 3.7917
L2C INSTRUCTION PREFETCH MPKI: 0
L2C WRITEBACK ACCESS:     413997  HIT:     395068  MISS:      18929  HIT %:    95.4277  MISS %:    4.57226   MPKI: 0.094645
L2C LOAD TRANSLATION ACCESS:      19497  HIT:      15269  MISS:       4228  HIT %:    78.3146  MISS %:    21.6854   MPKI: 0.02114
L2C TRANSLATION FROM L1D PREFETCHER ACCESS:      40817  HIT:      38876  MISS:       1941  HIT %:    95.2446  MISS %:    4.75537   MPKI: 0.009705
L2C PREFETCH  REQUESTED:          0  ISSUED:          0  USEFUL:     192669  USELESS:     861466
L2C USEFUL LOAD PREFETCHES:     192669 PREFETCH ISSUED TO LOWER LEVEL:    1109663  ACCURACY: 17.3628
L2C TIMELY PREFETCHES:     192669 LATE PREFETCHES: 58315 DROPPED PREFETCHES: 0
L2C PREFETCHES SAME FILL-ORIGIN LEVEL: 859216 DIFFERENT FILL-ORIGIN LEVEL: 0
L2C AVERAGE MISS LATENCY: 713.699 cycles
L2C RQ	ACCESS:     947167	FORWARD:          0	MERGED:          0	TO_CACHE:     947165
L2C WQ	ACCESS:     571175	FORWARD:          2	MERGED:          0	TO_CACHE:     571175
L2C PQ	ACCESS:    5524258	FORWARD:          0	MERGED:      62117	TO_CACHE:    5462141

L2C Instructions Evicting Data 36
L2C Translations Evicting Data 8556
L2C Data Evicting Data 1722134
L2C Instructions Evicting Instructions 0
L2C Translations Evicting Instructions 0
L2C Data Evicting Instructions 35
L2C Instructions Evicting Translations 0
L2C Translations Evicting Translations 17
L2C Data Evicting Translations 8441
L2C Dense regions hint from L2: 0
PSCL5 TOTAL     ACCESS:      60224  HIT:      60224  MISS:          0  HIT %:        100  MISS %:          0   MPKI: 0
PSCL5 LOAD TRANSLATION ACCESS:      19422  HIT:      19422  MISS:          0  HIT %:        100  MISS %:          0   MPKI: 0
PSCL5 TRANSLATION FROM L1D PREFETCHER ACCESS:      40802  HIT:      40802  MISS:          0  HIT %:        100  MISS %:          0   MPKI: 0
PSCL5 PREFETCH  REQUESTED:          0  ISSUED:          0  USEFUL:          0  USELESS:          0
PSCL5 USEFUL LOAD PREFETCHES:          0 PREFETCH ISSUED TO LOWER LEVEL:          0  ACCURACY: -nan
PSCL5 TIMELY PREFETCHES:          0 LATE PREFETCHES: 0 DROPPED PREFETCHES: 0
PSCL5 PREFETCHES SAME FILL-ORIGIN LEVEL: 0 DIFFERENT FILL-ORIGIN LEVEL: 0

PSCL4 TOTAL     ACCESS:      60224  HIT:      60224  MISS:          0  HIT %:        100  MISS %:          0   MPKI: 0
PSCL4 LOAD TRANSLATION ACCESS:      19422  HIT:      19422  MISS:          0  HIT %:        100  MISS %:          0   MPKI: 0
PSCL4 TRANSLATION FROM L1D PREFETCHER ACCESS:      40802  HIT:      40802  MISS:          0  HIT %:        100  MISS %:          0   MPKI: 0
PSCL4 PREFETCH  REQUESTED:          0  ISSUED:          0  USEFUL:          0  USELESS:          0
PSCL4 USEFUL LOAD PREFETCHES:          0 PREFETCH ISSUED TO LOWER LEVEL:          0  ACCURACY: -nan
PSCL4 TIMELY PREFETCHES:          0 LATE PREFETCHES: 0 DROPPED PREFETCHES: 0
PSCL4 PREFETCHES SAME FILL-ORIGIN LEVEL: 0 DIFFERENT FILL-ORIGIN LEVEL: 0

PSCL3 TOTAL     ACCESS:      60221  HIT:      60215  MISS:          6  HIT %:      99.99  MISS %:  0.0099633   MPKI: 3e-05
PSCL3 LOAD TRANSLATION ACCESS:      19422  HIT:      19416  MISS:          6  HIT %:    99.9691  MISS %:  0.0308928   MPKI: 3e-05
PSCL3 TRANSLATION FROM L1D PREFETCHER ACCESS:      40799  HIT:      40799  MISS:          0  HIT %:        100  MISS %:          0   MPKI: 0
PSCL3 PREFETCH  REQUESTED:          0  ISSUED:          0  USEFUL:          0  USELESS:          0
PSCL3 USEFUL LOAD PREFETCHES:          0 PREFETCH ISSUED TO LOWER LEVEL:          0  ACCURACY: -nan
PSCL3 TIMELY PREFETCHES:          0 LATE PREFETCHES: 0 DROPPED PREFETCHES: 0
PSCL3 PREFETCHES SAME FILL-ORIGIN LEVEL: 0 DIFFERENT FILL-ORIGIN LEVEL: 0

PSCL2 TOTAL     ACCESS:      60203  HIT:      60078  MISS:        125  HIT %:    99.7924  MISS %:   0.207631   MPKI: 0.000625
PSCL2 LOAD TRANSLATION ACCESS:      19437  HIT:      19312  MISS:        125  HIT %:    99.3569  MISS %:   0.643103   MPKI: 0.000625
PSCL2 TRANSLATION FROM L1D PREFETCHER ACCESS:      40766  HIT:      40766  MISS:          0  HIT %:        100  MISS %:          0   MPKI: 0
PSCL2 PREFETCH  REQUESTED:          0  ISSUED:          0  USEFUL:          0  USELESS:          0
PSCL2 USEFUL LOAD PREFETCHES:          0 PREFETCH ISSUED TO LOWER LEVEL:          0  ACCURACY: -nan
PSCL2 TIMELY PREFETCHES:          0 LATE PREFETCHES: 0 DROPPED PREFETCHES: 0
PSCL2 PREFETCHES SAME FILL-ORIGIN LEVEL: 0 DIFFERENT FILL-ORIGIN LEVEL: 0

LLC TOTAL     ACCESS:    1671258  HIT:     361585  MISS:    1309673  HIT %:    21.6355  MISS %:    78.3645   MPKI: 6.54837
LLC LOAD      ACCESS:      38008  HIT:         83  MISS:      37925  HIT %:   0.218375  MISS %:    99.7816   MPKI: 0.189625
LLC RFO       ACCESS:     414101  HIT:          0  MISS:     414101  HIT %:          0  MISS %:        100   MPKI: 2.0705
LLC PREFETCH  ACCESS:     799159  HIT:        905  MISS:     798254  HIT %:   0.113244  MISS %:    99.8868   MPKI: 3.99127
LLC WRITEBACK ACCESS:     413821  HIT:     360469  MISS:      53352  HIT %:    87.1075  MISS %:    12.8925   MPKI: 0.26676
LLC LOAD TRANSLATION ACCESS:       4228  HIT:         84  MISS:       4144  HIT %:    1.98675  MISS %:    98.0132   MPKI: 0.02072
LLC TRANSLATION FROM L1D PREFETCHER ACCESS:       1941  HIT:         44  MISS:       1897  HIT %:    2.26687  MISS %:    97.7331   MPKI: 0.009485
LLC PREFETCH  REQUESTED:          0  ISSUED:          0  USEFUL:     130110  USELESS:    3532370
LLC USEFUL LOAD PREFETCHES:     130110 PREFETCH ISSUED TO LOWER LEVEL:    3644629  ACCURACY: 3.56991
LLC TIMELY PREFETCHES:     130110 LATE PREFETCHES: 0 DROPPED PREFETCHES: 0
LLC PREFETCHES SAME FILL-ORIGIN LEVEL: 0 DIFFERENT FILL-ORIGIN LEVEL: 0
LLC AVERAGE MISS LATENCY: 1634.53 cycles
LLC RQ	ACCESS:    5027223	FORWARD:          0	MERGED:          0	TO_CACHE:    5027197
LLC WQ	ACCESS:    3508220	FORWARD:         35	MERGED:          0	TO_CACHE:    3508220
LLC PQ	ACCESS:    5180726	FORWARD:          0	MERGED:          0	TO_CACHE:    5180717

LLC Dense regions hint to LLC: 0

RAW hits: 6778425
Loads Generated: 54537983
Loads sent to L1D: 47759558
Stores Generated: 25067741
Stores sent to L1D: 25067747
Major fault: 0 Minor fault: 21441
Allocated PAGES: 48674

CPU 2 cumulative IPC: 0.713899 instructions: 200000003 cycles: 280151541
ITLB TOTAL     ACCESS:   28603336  HIT:   28603336  MISS:          0  HIT %:        100  MISS %:          0   MPKI: 0
ITLB LOAD TRANSLATION ACCESS:   28603336  HIT:   28603336  MISS:          0  HIT %:        100  MISS %:          0   MPKI: 0
ITLB PREFETCH  REQUESTED:          0  ISSUED:          0  USEFUL:          0  USELESS:          0
ITLB USEFUL LOAD PREFETCHES:          0 PREFETCH ISSUED TO LOWER LEVEL:          0  ACCURACY: -nan
ITLB TIMELY PREFETCHES:          0 LATE PREFETCHES: 0 DROPPED PREFETCHES: 0
ITLB PREFETCHES SAME FILL-ORIGIN LEVEL: 0 DIFFERENT FILL-ORIGIN LEVEL: 0
ITLB AVERAGE MISS LATENCY: inf cycles
ITLB RQ	ACCESS:   51544259	FORWARD:          0	MERGED:    8436111	TO_CACHE:   43108148

DTLB TOTAL     ACCESS:   37930313  HIT:   37022925  MISS:     907388  HIT %:    97.6077  MISS %:    2.39225   MPKI: 4.53694
DTLB LOAD TRANSLATION ACCESS:   37930313  HIT:   37022925  MISS:     907388  HIT %:    97.6077  MISS %:    2.39225   MPKI: 4.53694
DTLB PREFETCH  REQUESTED:          0  ISSUED:          0  USEFUL:          0  USELESS:          0
DTLB USEFUL LOAD PREFETCHES:          0 PREFETCH ISSUED TO LOWER LEVEL:          0  ACCURACY: -nan
DTLB TIMELY PREFETCHES:          0 LATE PREFETCHES: 0 DROPPED PREFETCHES: 0
DTLB PREFETCHES SAME FILL-ORIGIN LEVEL: 0 DIFFERENT FILL-ORIGIN LEVEL: 0
DTLB AVERAGE MISS LATENCY: 22.6139 cycles
DTLB RQ	ACCESS:   73639906	FORWARD:          0	MERGED:   16110308	TO_CACHE:   57529598

STLB TOTAL     ACCESS:    1216042  HIT:    1084958  MISS:     131084  HIT %:    89.2204  MISS %:    10.7796   MPKI: 0.65542
STLB LOAD TRANSLATION ACCESS:     907388  HIT:     776494  MISS:     130894  HIT %:    85.5746  MISS %:    14.4254   MPKI: 0.65447
STLB TRANSLATION FROM L1D PREFETCHER ACCESS:     308654  HIT:     308464  MISS:        190  HIT %:    99.9384  MISS %:  0.0615576   MPKI: 0.00095
STLB PREFETCH  REQUESTED:          0  ISSUED:          0  USEFUL:        957  USELESS:         79
STLB USEFUL LOAD PREFETCHES:        957 PREFETCH ISSUED TO LOWER LEVEL:          0  ACCURACY: inf
STLB TIMELY PREFETCHES:        957 LATE PREFETCHES: 139 DROPPED PREFETCHES: 3139
STLB PREFETCHES SAME FILL-ORIGIN LEVEL: 0 DIFFERENT FILL-ORIGIN LEVEL: 0
STLB AVERAGE MISS LATENCY: 72.3698 cycles
STLB RQ	ACCESS:    2564374	FORWARD:          0	MERGED:     835134	TO_CACHE:    1729240

STLB Hit, L1D data hit: 0
STLB Hit, L2C data hit: 0
STLB Hit, LLC data hit: 0
STLB Hit, LLC data miss: 0
STLB STLB hints to L2: 0
L1D TOTAL     ACCESS:   48593652  HIT:   47481538  MISS:    1112114  HIT %:    97.7114  MISS %:     2.2886   MPKI: 5.56057
L1D LOAD      ACCESS:   31032782  HIT:   30062854  MISS:     969928  HIT %:    96.8745  MISS %:    3.12549   MPKI: 4.84964
L1D RFO       ACCESS:   16964127  HIT:   16828827  MISS:     135300  HIT %:    99.2024  MISS %:   0.797565   MPKI: 0.6765
L1D PREFETCH  ACCESS:     596743  HIT:     589857  MISS:       6886  HIT %:    98.8461  MISS %:    1.15393   MPKI: 0.03443
L1D PREFETCH  REQUESTED:    3248057  ISSUED:    2930294  USEFUL:      25292  USELESS:       1518
L1D USEFUL LOAD PREFETCHES:      25292 PREFETCH ISSUED TO LOWER LEVEL:     281875  ACCURACY: 8.97277
L1D TIMELY PREFETCHES:      25292 LATE PREFETCHES: 11496 DROPPED PREFETCHES: 9271
L1D PREFETCHES SAME FILL-ORIGIN LEVEL: 38329 DIFFERENT FILL-ORIGIN LEVEL: 243546
L1D AVERAGE MISS LATENCY: 172.302 cycles
L1D RQ	ACCESS:   67876829	FORWARD:          0	MERGED:   20389154	TO_CACHE:   47397078
L1D WQ	ACCESS:   26602070	FORWARD:      90603	MERGED:     359242	TO_CACHE:   26242828
L1D PQ	ACCESS:    1597456	FORWARD:          0	MERGED:     264612	TO_CACHE:    1332838

L1D UNIQUE REGIONS ACCESSED: 0
L1D REGIONS CONFLICTS: 0
L1D Cross Page Prefetch Requests: 200313
L1D Same Page Prefetch Requests: 1737771
L1D ROI Sum of L1D PQ occupancy: 34984356
L1D PREFETCHES PUSHED FROM L2C: 0
L1I TOTAL     ACCESS:   34151306  HIT:   34150930  MISS:        376  HIT %:    99.9989  MISS %: 0.00110098   MPKI: 0.00188
L1I LOAD      ACCESS:   34151306  HIT:   34150930  MISS:        376  HIT %:    99.9989  MISS %: 0.00110098   MPKI: 0.00188
L1I PREFETCH  REQUESTED:          0  ISSUED:          0  USEFUL:          0  USELESS:          0
L1I USEFUL LOAD PREFETCHES:          0 PREFETCH ISSUED TO LOWER LEVEL:          0  ACCURACY: -nan
L1I TIMELY PREFETCHES:          0 LATE PREFETCHES: 0 DROPPED PREFETCHES: 0
L1I PREFETCHES SAME FILL-ORIGIN LEVEL: 0 DIFFERENT FILL-ORIGIN LEVEL: 0
L1I AVERAGE MISS LATENCY: 366.455 cycles
L1I RQ	ACCESS:   76484518	FORWARD:          0	MERGED:   24940259	TO_CACHE:   51544259

BTB TOTAL     ACCESS:   23435391  HIT:   23187553  MISS:     247838  HIT %:    98.9425  MISS %:    1.05754   MPKI: 1.23919
BTB BRANCH_DIRECT_JUMP	ACCESS:    2831247  HIT:    2831241  MISS:          6
BTB BRANCH_INDIRECT	ACCESS:     450367  HIT:     210547  MISS:     239820
BTB BRANCH_CONDITIONAL	ACCESS:   19564217  HIT:   19564194  MISS:         23
BTB BRANCH_DIRECT_CALL	ACCESS:     192148  HIT:     192148  MISS:          0
BTB BRANCH_INDIRECT_CALL	ACCESS:     102632  HIT:     102631  MISS:          1
BTB BRANCH_RETURN	ACCESS:     294780  HIT:     286792  MISS:       7988
BTB BRANCH_OTHER ACCESS:          0  HIT:          0  MISS:          0

L2C TOTAL     ACCESS:    2119113  HIT:    1493161  MISS:     625952  HIT %:    70.4616  MISS %:    29.5384   MPKI: 3.12976
L2C LOAD      ACCESS:     970237  HIT:     481635  MISS:     488602  HIT %:     49.641  MISS %:     50.359   MPKI: 2.44301
L2C DATA LOAD MPKI: 2.44126
L2C INSTRUCTION LOAD MPKI: 0.001745
L2C RFO       ACCESS:     135273  HIT:      84281  MISS:      50992  HIT %:    62.3044  MISS %:    37.6956   MPKI: 0.25496
L2C PREFETCH  ACCESS:     125011  HIT:     106682  MISS:      18329  HIT %:    85.3381  MISS %:    14.6619   MPKI: 0.091645
L2C DATA PREFETCH MPKI: 0.091645
L2C INSTRUCTION PREFETCH MPKI: 0
L2C WRITEBACK ACCESS:     755510  HIT:     726196  MISS:      29314  HIT %:      96.12  MISS %:    3.88003   MPKI: 0.14657
L2C LOAD TRANSLATION ACCESS:     130996  HIT:      92363  MISS:      38633  HIT %:    70.5083  MISS %:    29.4917   MPKI: 0.193165
L2C TRANSLATION FROM L1D PREFETCHER ACCESS:       2086  HIT:       2004  MISS:         82  HIT %:     96.069  MISS %:    3.93097   MPKI: 0.00041
L2C PREFETCH  REQUESTED:          0  ISSUED:          0  USEFUL:      29325  USELESS:      44672
L2C USEFUL LOAD PREFETCHES:      29325 PREFETCH ISSUED TO LOWER LEVEL:      86635  ACCURACY: 33.8489
L2C TIMELY PREFETCHES:      29325 LATE PREFETCHES: 12887 DROPPED PREFETCHES: 0
L2C PREFETCHES SAME FILL-ORIGIN LEVEL: 63902 DIFFERENT FILL-ORIGIN LEVEL: 0
L2C AVERAGE MISS LATENCY: 315.577 cycles
L2C RQ	ACCESS:    1767595	FORWARD:          0	MERGED:          0	TO_CACHE:    1767555
L2C WQ	ACCESS:    1107761	FORWARD:         40	MERGED:          0	TO_CACHE:    1107761
L2C PQ	ACCESS:     279575	FORWARD:          0	MERGED:        826	TO_CACHE:     278749

L2C Instructions Evicting Data 485
L2C Translations Evicting Data 45566
L2C Data Evicting Data 790346
L2C Instructions Evicting Instructions 6
L2C Translations Evicting Instructions 29
L2C Data Evicting Instructions 468
L2C Instructions Evicting Translations 23
L2C Translations Evicting Translations 3009
L2C Data Evicting Translations 43131
L2C Dense regions hint from L2: 0
PSCL5 TOTAL     ACCESS:     132973  HIT:     132973  MISS:          0  HIT %:        100  MISS %:          0   MPKI: 0
PSCL5 LOAD TRANSLATION ACCESS:     130894  HIT:     130894  MISS:          0  HIT %:        100  MISS %:          0   MPKI: 0
PSCL5 TRANSLATION FROM L1D PREFETCHER ACCESS:       2079  HIT:       2079  MISS:          0  HIT %:        100  MISS %:          0   MPKI: 0
PSCL5 PREFETCH  REQUESTED:          0  ISSUED:          0  USEFUL:          0  USELESS:          0
PSCL5 USEFUL LOAD PREFETCHES:          0 PREFETCH ISSUED TO LOWER LEVEL:          0  ACCURACY: -nan
PSCL5 TIMELY PREFETCHES:          0 LATE PREFETCHES: 0 DROPPED PREFETCHES: 0
PSCL5 PREFETCHES SAME FILL-ORIGIN LEVEL: 0 DIFFERENT FILL-ORIGIN LEVEL: 0

PSCL4 TOTAL     ACCESS:     132973  HIT:     132973  MISS:          0  HIT %:        100  MISS %:          0   MPKI: 0
PSCL4 LOAD TRANSLATION ACCESS:     130894  HIT:     130894  MISS:          0  HIT %:        100  MISS %:          0   MPKI: 0
PSCL4 TRANSLATION FROM L1D PREFETCHER ACCESS:       2079  HIT:       2079  MISS:          0  HIT %:        100  MISS %:          0   MPKI: 0
PSCL4 PREFETCH  REQUESTED:          0  ISSUED:          0  USEFUL:          0  USELESS:          0
PSCL4 USEFUL LOAD PREFETCHES:          0 PREFETCH ISSUED TO LOWER LEVEL:          0  ACCURACY: -nan
PSCL4 TIMELY PREFETCHES:          0 LATE PREFETCHES: 0 DROPPED PREFETCHES: 0
PSCL4 PREFETCHES SAME FILL-ORIGIN LEVEL: 0 DIFFERENT FILL-ORIGIN LEVEL: 0

PSCL3 TOTAL     ACCESS:     132973  HIT:     132973  MISS:          0  HIT %:        100  MISS %:          0   MPKI: 0
PSCL3 LOAD TRANSLATION ACCESS:     130894  HIT:     130894  MISS:          0  HIT %:        100  MISS %:          0   MPKI: 0
PSCL3 TRANSLATION FROM L1D PREFETCHER ACCESS:       2079  HIT:       2079  MISS:          0  HIT %:        100  MISS %:          0   MPKI: 0
PSCL3 PREFETCH  REQUESTED:          0  ISSUED:          0  USEFUL:          0  USELESS:          0
PSCL3 USEFUL LOAD PREFETCHES:          0 PREFETCH ISSUED TO LOWER LEVEL:          0  ACCURACY: -nan
PSCL3 TIMELY PREFETCHES:          0 LATE PREFETCHES: 0 DROPPED PREFETCHES: 0
PSCL3 PREFETCHES SAME FILL-ORIGIN LEVEL: 0 DIFFERENT FILL-ORIGIN LEVEL: 0

PSCL2 TOTAL     ACCESS:     132972  HIT:     132864  MISS:        108  HIT %:    99.9188  MISS %:  0.0812201   MPKI: 0.00054
PSCL2 LOAD TRANSLATION ACCESS:     130900  HIT:     130792  MISS:        108  HIT %:    99.9175  MISS %:  0.0825057   MPKI: 0.00054
PSCL2 TRANSLATION FROM L1D PREFETCHER ACCESS:       2072  HIT:       2072  MISS:          0  HIT %:        100  MISS %:          0   MPKI: 0
PSCL2 PREFETCH  REQUESTED:          0  ISSUED:          0  USEFUL:          0  USELESS:          0
PSCL2 USEFUL LOAD PREFETCHES:          0 PREFETCH ISSUED TO LOWER LEVEL:          0  ACCURACY: -nan
PSCL2 TIMELY PREFETCHES:          0 LATE PREFETCHES: 0 DROPPED PREFETCHES: 0
PSCL2 PREFETCHES SAME FILL-ORIGIN LEVEL: 0 DIFFERENT FILL-ORIGIN LEVEL: 0

LLC TOTAL     ACCESS:     984202  HIT:     559830  MISS:     424372  HIT %:    56.8816  MISS %:    43.1184   MPKI: 2.12186
LLC LOAD      ACCESS:     488495  HIT:     191309  MISS:     297186  HIT %:    39.1629  MISS %:    60.8371   MPKI: 1.48593
LLC RFO       ACCESS:      50950  HIT:      16414  MISS:      34536  HIT %:    32.2159  MISS %:    67.7841   MPKI: 0.17268
LLC PREFETCH  ACCESS:      18477  HIT:       4396  MISS:      14081  HIT %:    23.7917  MISS %:    76.2083   MPKI: 0.070405
LLC WRITEBACK ACCESS:     387565  HIT:     316557  MISS:      71008  HIT %:    81.6784  MISS %:    18.3216   MPKI: 0.35504
LLC LOAD TRANSLATION ACCESS:      38633  HIT:      31110  MISS:       7523  HIT %:     80.527  MISS %:     19.473   MPKI: 0.037615
LLC TRANSLATION FROM L1D PREFETCHER ACCESS:         82  HIT:         44  MISS:         38  HIT %:    53.6585  MISS %:    46.3415   MPKI: 0.00019
LLC PREFETCH  REQUESTED:          0  ISSUED:          0  USEFUL:     130110  USELESS:    3532370
LLC USEFUL LOAD PREFETCHES:     130110 PREFETCH ISSUED TO LOWER LEVEL:    3644629  ACCURACY: 3.56991
LLC TIMELY PREFETCHES:     130110 LATE PREFETCHES: 0 DROPPED PREFETCHES: 0
LLC PREFETCHES SAME FILL-ORIGIN LEVEL: 0 DIFFERENT FILL-ORIGIN LEVEL: 0
LLC AVERAGE MISS LATENCY: 5044.4 cycles
LLC RQ	ACCESS:    5027223	FORWARD:          0	MERGED:          0	TO_CACHE:    5027197
LLC WQ	ACCESS:    3508220	FORWARD:         35	MERGED:          0	TO_CACHE:    3508220
LLC PQ	ACCESS:    5180726	FORWARD:          0	MERGED:          0	TO_CACHE:    5180717

LLC Dense regions hint to LLC: 0

RAW hits: 2662637
Loads Generated: 47342749
Loads sent to L1D: 44680112
Stores Generated: 17264732
Stores sent to L1D: 17264731
Major fault: 0 Minor fault: 9186
Allocated PAGES: 48674

CPU 3 cumulative IPC: 0.84293 instructions: 200000000 cycles: 237267685
ITLB TOTAL     ACCESS:   35898382  HIT:   35898382  MISS:          0  HIT %:        100  MISS %:          0   MPKI: 0
ITLB LOAD TRANSLATION ACCESS:   35898382  HIT:   35898382  MISS:          0  HIT %:        100  MISS %:          0   MPKI: 0
ITLB PREFETCH  REQUESTED:          0  ISSUED:          0  USEFUL:          0  USELESS:          0
ITLB USEFUL LOAD PREFETCHES:          0 PREFETCH ISSUED TO LOWER LEVEL:          0  ACCURACY: -nan
ITLB TIMELY PREFETCHES:          0 LATE PREFETCHES: 0 DROPPED PREFETCHES: 0
ITLB PREFETCHES SAME FILL-ORIGIN LEVEL: 0 DIFFERENT FILL-ORIGIN LEVEL: 0
ITLB AVERAGE MISS LATENCY: -nan cycles
ITLB RQ	ACCESS:   66029156	FORWARD:          0	MERGED:    4327759	TO_CACHE:   61701397

DTLB TOTAL     ACCESS:   26156069  HIT:   26150160  MISS:       5909  HIT %:    99.9774  MISS %:  0.0225913   MPKI: 0.029545
DTLB LOAD TRANSLATION ACCESS:   26156069  HIT:   26150160  MISS:       5909  HIT %:    99.9774  MISS %:  0.0225913   MPKI: 0.029545
DTLB PREFETCH  REQUESTED:          0  ISSUED:          0  USEFUL:          0  USELESS:          0
DTLB USEFUL LOAD PREFETCHES:          0 PREFETCH ISSUED TO LOWER LEVEL:          0  ACCURACY: -nan
DTLB TIMELY PREFETCHES:          0 LATE PREFETCHES: 0 DROPPED PREFETCHES: 0
DTLB PREFETCHES SAME FILL-ORIGIN LEVEL: 0 DIFFERENT FILL-ORIGIN LEVEL: 0
DTLB AVERAGE MISS LATENCY: 103.886 cycles
DTLB RQ	ACCESS:   50621461	FORWARD:          0	MERGED:    5722647	TO_CACHE:   44898814

STLB TOTAL     ACCESS:    4022926  HIT:    4018863  MISS:       4063  HIT %:     99.899  MISS %:   0.100996   MPKI: 0.020315
STLB LOAD TRANSLATION ACCESS:       5909  HIT:       1877  MISS:       4032  HIT %:    31.7651  MISS %:    68.2349   MPKI: 0.02016
STLB TRANSLATION FROM L1D PREFETCHER ACCESS:    4017017  HIT:    4016986  MISS:         31  HIT %:    99.9992  MISS %: 0.000771717   MPKI: 0.000155
STLB PREFETCH  REQUESTED:          0  ISSUED:          0  USEFUL:       2343  USELESS:          0
STLB USEFUL LOAD PREFETCHES:       2343 PREFETCH ISSUED TO LOWER LEVEL:          0  ACCURACY: inf
STLB TIMELY PREFETCHES:       2343 LATE PREFETCHES: 268 DROPPED PREFETCHES: 445085
STLB PREFETCHES SAME FILL-ORIGIN LEVEL: 0 DIFFERENT FILL-ORIGIN LEVEL: 0
STLB AVERAGE MISS LATENCY: 161.405 cycles
STLB RQ	ACCESS:   42526979	FORWARD:          0	MERGED:   34762659	TO_CACHE:    7764320

STLB Hit, L1D data hit: 0
STLB Hit, L2C data hit: 0
STLB Hit, LLC data hit: 0
STLB Hit, LLC data miss: 0
STLB STLB hints to L2: 0
L1D TOTAL     ACCESS:   48689796  HIT:   48430172  MISS:     259624  HIT %:    99.4668  MISS %:   0.533221   MPKI: 1.29812
L1D LOAD      ACCESS:   19271748  HIT:   19268481  MISS:       3267  HIT %:     99.983  MISS %:  0.0169523   MPKI: 0.016335
L1D RFO       ACCESS:   10186629  HIT:   10133411  MISS:      53218  HIT %:    99.4776  MISS %:    0.52243   MPKI: 0.26609
L1D PREFETCH  ACCESS:   19231419  HIT:   19028280  MISS:     203139  HIT %:    98.9437  MISS %:    1.05629   MPKI: 1.0157
L1D PREFETCH  REQUESTED:   90508575  ISSUED:   90506785  USEFUL:     351123  USELESS:         14
L1D USEFUL LOAD PREFETCHES:     351123 PREFETCH ISSUED TO LOWER LEVEL:    6697146  ACCURACY: 5.24288
L1D TIMELY PREFETCHES:     351123 LATE PREFETCHES: 389 DROPPED PREFETCHES: 1452697
L1D PREFETCHES SAME FILL-ORIGIN LEVEL: 351525 DIFFERENT FILL-ORIGIN LEVEL: 6345621
L1D AVERAGE MISS LATENCY: 335.18 cycles
L1D RQ	ACCESS:   43691030	FORWARD:          0	MERGED:   10579136	TO_CACHE:   33087649
L1D WQ	ACCESS:   17533812	FORWARD:      24245	MERGED:          0	TO_CACHE:   17533812
L1D PQ	ACCESS:   47990327	FORWARD:          0	MERGED:    5473869	TO_CACHE:   42516458

L1D UNIQUE REGIONS ACCESSED: 0
L1D REGIONS CONFLICTS: 0
L1D Cross Page Prefetch Requests: 3985307
L1D Same Page Prefetch Requests: 55084648
L1D ROI Sum of L1D PQ occupancy: 557258429
L1D PREFETCHES PUSHED FROM L2C: 0
L1I TOTAL     ACCESS:   38425262  HIT:   38425262  MISS:          0  HIT %:        100  MISS %:          0   MPKI: 0
L1I LOAD      ACCESS:   38425262  HIT:   38425262  MISS:          0  HIT %:        100  MISS %:          0   MPKI: 0
L1I PREFETCH  REQUESTED:          0  ISSUED:          0  USEFUL:          0  USELESS:          0
L1I USEFUL LOAD PREFETCHES:          0 PREFETCH ISSUED TO LOWER LEVEL:          0  ACCURACY: -nan
L1I TIMELY PREFETCHES:          0 LATE PREFETCHES: 0 DROPPED PREFETCHES: 0
L1I PREFETCHES SAME FILL-ORIGIN LEVEL: 0 DIFFERENT FILL-ORIGIN LEVEL: 0
L1I AVERAGE MISS LATENCY: -nan cycles
L1I RQ	ACCESS:   94497748	FORWARD:          0	MERGED:   28468592	TO_CACHE:   66029156

BTB TOTAL     ACCESS:   33721441  HIT:   33721441  MISS:          0  HIT %:        100  MISS %:          0   MPKI: 0
BTB BRANCH_DIRECT_JUMP	ACCESS:    8100769  HIT:    8100769  MISS:          0
BTB BRANCH_INDIRECT	ACCESS:          0  HIT:          0  MISS:          0
BTB BRANCH_CONDITIONAL	ACCESS:   23917726  HIT:   23917726  MISS:          0
BTB BRANCH_DIRECT_CALL	ACCESS:     851473  HIT:     851473  MISS:          0
BTB BRANCH_INDIRECT_CALL	ACCESS:          0  HIT:          0  MISS:          0
BTB BRANCH_RETURN	ACCESS:     851473  HIT:     851473  MISS:          0
BTB BRANCH_OTHER ACCESS:          0  HIT:          0  MISS:          0

L2C TOTAL     ACCESS:    4325164  HIT:    4060871  MISS:     264293  HIT %:    93.8894  MISS %:    6.11059   MPKI: 1.32146
L2C LOAD      ACCESS:       2878  HIT:         69  MISS:       2809  HIT %:     2.3975  MISS %:    97.6025   MPKI: 0.014045
L2C DATA LOAD MPKI: 0.014045
L2C INSTRUCTION LOAD MPKI: 0
L2C RFO       ACCESS:      53218  HIT:          0  MISS:      53218  HIT %:          0  MISS %:        100   MPKI: 0.26609
L2C PREFETCH  ACCESS:    3766436  HIT:    3562822  MISS:     203614  HIT %:     94.594  MISS %:    5.40601   MPKI: 1.01807
L2C DATA PREFETCH MPKI: 1.01807
L2C INSTRUCTION PREFETCH MPKI: 0
L2C WRITEBACK ACCESS:      53216  HIT:      49095  MISS:       4121  HIT %:    92.2561  MISS %:    7.74391   MPKI: 0.020605
L2C LOAD TRANSLATION ACCESS:       4032  HIT:       3915  MISS:        117  HIT %:    97.0982  MISS %:    2.90179   MPKI: 0.000585
L2C TRANSLATION FROM L1D PREFETCHER ACCESS:     445384  HIT:     444970  MISS:        414  HIT %:     99.907  MISS %:  0.0929535   MPKI: 0.00207
L2C PREFETCH  REQUESTED:          0  ISSUED:          0  USEFUL:        796  USELESS:     351500
L2C USEFUL LOAD PREFETCHES:        796 PREFETCH ISSUED TO LOWER LEVEL:     351761  ACCURACY: 0.22629
L2C TIMELY PREFETCHES:        796 LATE PREFETCHES: 139 DROPPED PREFETCHES: 0
L2C PREFETCHES SAME FILL-ORIGIN LEVEL: 177915 DIFFERENT FILL-ORIGIN LEVEL: 0
L2C AVERAGE MISS LATENCY: 511.952 cycles
L2C RQ	ACCESS:     546544	FORWARD:          0	MERGED:          0	TO_CACHE:     546544
L2C WQ	ACCESS:      91329	FORWARD:          0	MERGED:          0	TO_CACHE:      91329
L2C PQ	ACCESS:    6697146	FORWARD:          0	MERGED:        778	TO_CACHE:    6696368

L2C Instructions Evicting Data 0
L2C Translations Evicting Data 924
L2C Data Evicting Data 444848
L2C Instructions Evicting Instructions 0
L2C Translations Evicting Instructions 0
L2C Data Evicting Instructions 0
L2C Instructions Evicting Translations 0
L2C Translations Evicting Translations 0
L2C Data Evicting Translations 904
L2C Dense regions hint from L2: 0
PSCL5 TOTAL     ACCESS:     449416  HIT:     449416  MISS:          0  HIT %:        100  MISS %:          0   MPKI: 0
PSCL5 LOAD TRANSLATION ACCESS:       4032  HIT:       4032  MISS:          0  HIT %:        100  MISS %:          0   MPKI: 0
PSCL5 TRANSLATION FROM L1D PREFETCHER ACCESS:     445384  HIT:     445384  MISS:          0  HIT %:        100  MISS %:          0   MPKI: 0
PSCL5 PREFETCH  REQUESTED:          0  ISSUED:          0  USEFUL:          0  USELESS:          0
PSCL5 USEFUL LOAD PREFETCHES:          0 PREFETCH ISSUED TO LOWER LEVEL:          0  ACCURACY: -nan
PSCL5 TIMELY PREFETCHES:          0 LATE PREFETCHES: 0 DROPPED PREFETCHES: 0
PSCL5 PREFETCHES SAME FILL-ORIGIN LEVEL: 0 DIFFERENT FILL-ORIGIN LEVEL: 0

PSCL4 TOTAL     ACCESS:     449416  HIT:     449416  MISS:          0  HIT %:        100  MISS %:          0   MPKI: 0
PSCL4 LOAD TRANSLATION ACCESS:       4032  HIT:       4032  MISS:          0  HIT %:        100  MISS %:          0   MPKI: 0
PSCL4 TRANSLATION FROM L1D PREFETCHER ACCESS:     445384  HIT:     445384  MISS:          0  HIT %:        100  MISS %:          0   MPKI: 0
PSCL4 PREFETCH  REQUESTED:          0  ISSUED:          0  USEFUL:          0  USELESS:          0
PSCL4 USEFUL LOAD PREFETCHES:          0 PREFETCH ISSUED TO LOWER LEVEL:          0  ACCURACY: -nan
PSCL4 TIMELY PREFETCHES:          0 LATE PREFETCHES: 0 DROPPED PREFETCHES: 0
PSCL4 PREFETCHES SAME FILL-ORIGIN LEVEL: 0 DIFFERENT FILL-ORIGIN LEVEL: 0

PSCL3 TOTAL     ACCESS:     449416  HIT:     449416  MISS:          0  HIT %:        100  MISS %:          0   MPKI: 0
PSCL3 LOAD TRANSLATION ACCESS:       4032  HIT:       4032  MISS:          0  HIT %:        100  MISS %:          0   MPKI: 0
PSCL3 TRANSLATION FROM L1D PREFETCHER ACCESS:     445384  HIT:     445384  MISS:          0  HIT %:        100  MISS %:          0   MPKI: 0
PSCL3 PREFETCH  REQUESTED:          0  ISSUED:          0  USEFUL:          0  USELESS:          0
PSCL3 USEFUL LOAD PREFETCHES:          0 PREFETCH ISSUED TO LOWER LEVEL:          0  ACCURACY: -nan
PSCL3 TIMELY PREFETCHES:          0 LATE PREFETCHES: 0 DROPPED PREFETCHES: 0
PSCL3 PREFETCHES SAME FILL-ORIGIN LEVEL: 0 DIFFERENT FILL-ORIGIN LEVEL: 0

PSCL2 TOTAL     ACCESS:     448732  HIT:     448724  MISS:          8  HIT %:    99.9982  MISS %:  0.0017828   MPKI: 4e-05
PSCL2 LOAD TRANSLATION ACCESS:       4032  HIT:       4024  MISS:          8  HIT %:    99.8016  MISS %:   0.198413   MPKI: 4e-05
PSCL2 TRANSLATION FROM L1D PREFETCHER ACCESS:     444700  HIT:     444700  MISS:          0  HIT %:        100  MISS %:          0   MPKI: 0
PSCL2 PREFETCH  REQUESTED:          0  ISSUED:          0  USEFUL:          0  USELESS:          0
PSCL2 USEFUL LOAD PREFETCHES:          0 PREFETCH ISSUED TO LOWER LEVEL:          0  ACCURACY: -nan
PSCL2 TIMELY PREFETCHES:          0 LATE PREFETCHES: 0 DROPPED PREFETCHES: 0
PSCL2 PREFETCHES SAME FILL-ORIGIN LEVEL: 0 DIFFERENT FILL-ORIGIN LEVEL: 0

LLC TOTAL     ACCESS:     313414  HIT:      25350  MISS:     288064  HIT %:    8.08834  MISS %:    91.9117   MPKI: 1.44032
LLC LOAD      ACCESS:       2670  HIT:          0  MISS:       2670  HIT %:          0  MISS %:        100   MPKI: 0.01335
LLC RFO       ACCESS:      53218  HIT:          0  MISS:      53218  HIT %:          0  MISS %:        100   MPKI: 0.26609
LLC PREFETCH  ACCESS:     203753  HIT:          1  MISS:     203752  HIT %: 0.00049079  MISS %:    99.9995   MPKI: 1.01876
LLC WRITEBACK ACCESS:      53242  HIT:      25337  MISS:      27905  HIT %:    47.5884  MISS %:    52.4116   MPKI: 0.139525
LLC LOAD TRANSLATION ACCESS:        117  HIT:          7  MISS:        110  HIT %:    5.98291  MISS %:    94.0171   MPKI: 0.00055
LLC TRANSLATION FROM L1D PREFETCHER ACCESS:        414  HIT:          5  MISS:        409  HIT %:    1.20773  MISS %:    98.7923   MPKI: 0.002045
LLC PREFETCH  REQUESTED:          0  ISSUED:          0  USEFUL:     130110  USELESS:    3532370
LLC USEFUL LOAD PREFETCHES:     130110 PREFETCH ISSUED TO LOWER LEVEL:    3644629  ACCURACY: 3.56991
LLC TIMELY PREFETCHES:     130110 LATE PREFETCHES: 0 DROPPED PREFETCHES: 0
LLC PREFETCHES SAME FILL-ORIGIN LEVEL: 0 DIFFERENT FILL-ORIGIN LEVEL: 0
LLC AVERAGE MISS LATENCY: 7431.34 cycles
LLC RQ	ACCESS:    5027223	FORWARD:          0	MERGED:          0	TO_CACHE:    5027197
LLC WQ	ACCESS:    3508220	FORWARD:         35	MERGED:          0	TO_CACHE:    3508220
LLC PQ	ACCESS:    5180726	FORWARD:          0	MERGED:          0	TO_CACHE:    5180717

LLC Dense regions hint to LLC: 0

RAW hits: 2676190
Loads Generated: 28122158
Loads sent to L1D: 25445968
Stores Generated: 10217676
Stores sent to L1D: 10217676
Major fault: 0 Minor fault: 5113
Allocated PAGES: 48674

DRAM Statistics
 CHANNEL 0
 RQ ROW_BUFFER_HIT:    1749002  ROW_BUFFER_MISS:    4684430
 DBUS_CONGESTED:       1834
 WQ ROW_BUFFER_HIT:     361475  ROW_BUFFER_MISS:    1536434  FULL:          0

 AVG_CONGESTED_CYCLE: 4
 All warmup complete: 5
Channel 0 Bank busy for read cycles: 0
Channel 0 Bank busy for write cycles: 0
Channel 0
Rank 0
0banks busy for read cycles: 65286962
0banks busy for write cycles: 99477
1banks busy for read cycles: 87749192
1banks busy for write cycles: 15560259
2banks busy for read cycles: 53009942
2banks busy for write cycles: 6226414
3banks busy for read cycles: 31562810
3banks busy for write cycles: 3233346
4banks busy for read cycles: 21087727
4banks busy for write cycles: 2085856
5banks busy for read cycles: 15569254
5banks busy for write cycles: 1641719
6banks busy for read cycles: 13084010
6banks busy for write cycles: 1900021
7banks busy for read cycles: 13896844
7banks busy for write cycles: 7291639
8banks busy for read cycles: 24701302
8banks busy for write cycles: 42307415

CPU 0 Branch Prediction Accuracy: 94.6713% MPKI: 10.3853 Average ROB Occupancy at Mispredict: 40.3889
Branch types
NOT_BRANCH: 161020878 80.5104%
BRANCH_DIRECT_JUMP: 749458 0.374729%
BRANCH_INDIRECT: 60 3e-05%
BRANCH_CONDITIONAL: 37281239 18.6406%
BRANCH_DIRECT_CALL: 473691 0.236845%
BRANCH_INDIRECT_CALL: 337 0.0001685%
BRANCH_RETURN: 474030 0.237015%
BRANCH_OTHER: 0 0%


CPU 1 Branch Prediction Accuracy: 99.9733% MPKI: 0.0286154 Average ROB Occupancy at Mispredict: 156.777
Branch types
NOT_BRANCH: 228896912 89.251%
BRANCH_DIRECT_JUMP: 1833055 0.714741%
BRANCH_INDIRECT: 0 0%
BRANCH_CONDITIONAL: 18402057 7.17529%
BRANCH_DIRECT_CALL: 3666028 1.42945%
BRANCH_INDIRECT_CALL: 0 0%
BRANCH_RETURN: 3666025 1.42945%
BRANCH_OTHER: 0 0%


CPU 2 Branch Prediction Accuracy: 92.6871% MPKI: 8.94776 Average ROB Occupancy at Mispredict: 47.6476
Branch types
NOT_BRANCH: 264239288 87.6181%
BRANCH_DIRECT_JUMP: 4285203 1.42091%
BRANCH_INDIRECT: 682593 0.226338%
BRANCH_CONDITIONAL: 31446734 10.4273%
BRANCH_DIRECT_CALL: 304087 0.100831%
BRANCH_INDIRECT_CALL: 159341 0.0528353%
BRANCH_RETURN: 463426 0.153666%
BRANCH_OTHER: 0 0%


CPU 3 Branch Prediction Accuracy: 97.6682% MPKI: 7.02519 Average ROB Occupancy at Mispredict: 80.6777
Branch types
NOT_BRANCH: 239420637 69.7115%
BRANCH_DIRECT_JUMP: 13915225 4.05166%
BRANCH_INDIRECT: 0 0%
BRANCH_CONDITIONAL: 87186609 25.3859%
BRANCH_DIRECT_CALL: 1461151 0.42544%
BRANCH_INDIRECT_CALL: 0 0%
BRANCH_RETURN: 1461151 0.42544%
BRANCH_OTHER: 0 0%

DRAM PAGES: 1048576
Allocated PAGES: 48674
