
*** ChampSim Multicore Out-of-Order Simulator ***

Warmup Instructions: 50000000
Simulation Instructions: 200000000
Number of CPUs: 4
LLC sets: 8192
LLC ways: 16
Off-chip DRAM Size: 4096 MB Channels: 1 Width: 64-bit Data Rate: 6400 MT/s
CPU 0 runs ./traces/spec/429.mcf-184B.champsimtrace.xz
.xz
CPU 1 runs ./traces/spec/429.mcf-184B.champsimtrace.xz
.xz
CPU 2 runs ./traces/spec/429.mcf-184B.champsimtrace.xz
.xz
CPU 3 runs ./traces/spec/429.mcf-184B.champsimtrace.xz
.xz
BTB has LRU replacement policy
ITLB has LRU replacement policy
DTLB has LRU replacement policy
STLB has LRU replacement policy
L1I has LRU replacement policy
History Sets: 8
History Ways: 16
BERTI Size: 16
BERTI Stride Size: 8
L1D has LRU replacement policy
Initialize SRRIP state for L2C
Initialize DRRIP state for LLC
BTB has LRU replacement policy
ITLB has LRU replacement policy
DTLB has LRU replacement policy
STLB has LRU replacement policy
L1I has LRU replacement policy
History Sets: 8
History Ways: 16
BERTI Size: 16
BERTI Stride Size: 8
L1D has LRU replacement policy
Initialize SRRIP state for L2C
Initialize DRRIP state for LLC
BTB has LRU replacement policy
ITLB has LRU replacement policy
DTLB has LRU replacement policy
STLB has LRU replacement policy
L1I has LRU replacement policy
History Sets: 8
History Ways: 16
BERTI Size: 16
BERTI Stride Size: 8
L1D has LRU replacement policy
Initialize SRRIP state for L2C
Initialize DRRIP state for LLC
BTB has LRU replacement policy
ITLB has LRU replacement policy
DTLB has LRU replacement policy
STLB has LRU replacement policy
L1I has LRU replacement policy
History Sets: 8
History Ways: 16
BERTI Size: 16
BERTI Stride Size: 8
L1D has LRU replacement policy
Initialize SRRIP state for L2C
Initialize DRRIP state for LLC
Heartbeat CPU 0 instructions: 10000003 cycles: 3437835 heartbeat IPC: 2.90881 cumulative IPC: 2.90881 (Simulation time: 0 hr 4 min 50 sec) 
Heartbeat CPU 1 instructions: 10000003 cycles: 3458763 heartbeat IPC: 2.89121 cumulative IPC: 2.89121 (Simulation time: 0 hr 4 min 52 sec) 
Heartbeat CPU 2 instructions: 10000003 cycles: 3478735 heartbeat IPC: 2.87461 cumulative IPC: 2.87461 (Simulation time: 0 hr 4 min 54 sec) 
Heartbeat CPU 3 instructions: 10000003 cycles: 3497880 heartbeat IPC: 2.85888 cumulative IPC: 2.85888 (Simulation time: 0 hr 4 min 55 sec) 
Heartbeat CPU 0 instructions: 20000001 cycles: 6836701 heartbeat IPC: 2.94216 cumulative IPC: 2.92539 (Simulation time: 0 hr 9 min 53 sec) 
Heartbeat CPU 1 instructions: 20000001 cycles: 6883082 heartbeat IPC: 2.92029 cumulative IPC: 2.90568 (Simulation time: 0 hr 9 min 57 sec) 
Heartbeat CPU 2 instructions: 20000001 cycles: 6926154 heartbeat IPC: 2.90072 cumulative IPC: 2.88761 (Simulation time: 0 hr 10 min 1 sec) 
Heartbeat CPU 3 instructions: 20000001 cycles: 6964920 heartbeat IPC: 2.8843 cumulative IPC: 2.87153 (Simulation time: 0 hr 10 min 5 sec) 
Heartbeat CPU 0 instructions: 30000001 cycles: 9978120 heartbeat IPC: 3.18327 cumulative IPC: 3.00658 (Simulation time: 0 hr 14 min 46 sec) 
Heartbeat CPU 1 instructions: 30000001 cycles: 10028349 heartbeat IPC: 3.17938 cumulative IPC: 2.99152 (Simulation time: 0 hr 14 min 51 sec) 
Heartbeat CPU 2 instructions: 30000001 cycles: 10075428 heartbeat IPC: 3.17533 cumulative IPC: 2.97754 (Simulation time: 0 hr 14 min 56 sec) 
Heartbeat CPU 3 instructions: 30000001 cycles: 10118079 heartbeat IPC: 3.17142 cumulative IPC: 2.96499 (Simulation time: 0 hr 15 min 0 sec) 
Heartbeat CPU 0 instructions: 40000003 cycles: 13368048 heartbeat IPC: 2.94992 cumulative IPC: 2.99221 (Simulation time: 0 hr 19 min 22 sec) 
Heartbeat CPU 1 instructions: 40000001 cycles: 13445777 heartbeat IPC: 2.92618 cumulative IPC: 2.97491 (Simulation time: 0 hr 19 min 29 sec) 
Heartbeat CPU 2 instructions: 40000001 cycles: 13515727 heartbeat IPC: 2.90672 cumulative IPC: 2.95952 (Simulation time: 0 hr 19 min 35 sec) 
Heartbeat CPU 3 instructions: 40000001 cycles: 13576262 heartbeat IPC: 2.89169 cumulative IPC: 2.94632 (Simulation time: 0 hr 19 min 40 sec) 
Heartbeat CPU 0 instructions: 50000000 cycles: 16743051 heartbeat IPC: 2.96296 cumulative IPC: 2.98631 (Simulation time: 0 hr 24 min 14 sec) 
Heartbeat CPU 1 instructions: 50000000 cycles: 16857265 heartbeat IPC: 2.93127 cumulative IPC: 2.96608 (Simulation time: 0 hr 24 min 22 sec) 
Heartbeat CPU 2 instructions: 50000000 cycles: 16950849 heartbeat IPC: 2.9111 cumulative IPC: 2.9497 (Simulation time: 0 hr 24 min 26 sec) 
Heartbeat CPU 3 instructions: 50000002 cycles: 17026109 heartbeat IPC: 2.89868 cumulative IPC: 2.93667 (Simulation time: 0 hr 24 min 29 sec) 

Warmup complete CPU 0 instructions: 50429955 cycles: 17026109 (Simulation time: 0 hr 24 min 29 sec) 
Warmup complete CPU 1 instructions: 50256017 cycles: 17026109 (Simulation time: 0 hr 24 min 29 sec) 
Warmup complete CPU 2 instructions: 50111713 cycles: 17026109 (Simulation time: 0 hr 24 min 29 sec) 
Warmup complete CPU 3 instructions: 50000002 cycles: 17026109 (Simulation time: 0 hr 24 min 29 sec) 

Heartbeat CPU 0 instructions: 60000001 cycles: 151171456 heartbeat IPC: 0.074389 cumulative IPC: 0.0713409 (Simulation time: 0 hr 33 min 22 sec) 
Heartbeat CPU 1 instructions: 60000001 cycles: 153654886 heartbeat IPC: 0.0731007 cumulative IPC: 0.0713172 (Simulation time: 0 hr 33 min 32 sec) 
Heartbeat CPU 2 instructions: 60000001 cycles: 154522436 heartbeat IPC: 0.0726894 cumulative IPC: 0.0719167 (Simulation time: 0 hr 33 min 36 sec) 
Heartbeat CPU 3 instructions: 60000001 cycles: 156994976 heartbeat IPC: 0.0714445 cumulative IPC: 0.0714445 (Simulation time: 0 hr 33 min 46 sec) 
Heartbeat CPU 0 instructions: 70000000 cycles: 314965931 heartbeat IPC: 0.0610521 cumulative IPC: 0.0656846 (Simulation time: 0 hr 44 min 48 sec) 
Heartbeat CPU 1 instructions: 70000000 cycles: 317386534 heartbeat IPC: 0.0610755 cumulative IPC: 0.0657343 (Simulation time: 0 hr 44 min 58 sec) 
Heartbeat CPU 2 instructions: 70000000 cycles: 317531620 heartbeat IPC: 0.0613462 cumulative IPC: 0.0661828 (Simulation time: 0 hr 44 min 58 sec) 
Heartbeat CPU 3 instructions: 70000000 cycles: 321171944 heartbeat IPC: 0.0609099 cumulative IPC: 0.0657579 (Simulation time: 0 hr 45 min 13 sec) 
Heartbeat CPU 0 instructions: 80000001 cycles: 465747087 heartbeat IPC: 0.0663213 cumulative IPC: 0.0658985 (Simulation time: 0 hr 55 min 24 sec) 
Heartbeat CPU 1 instructions: 80000001 cycles: 467196494 heartbeat IPC: 0.0667512 cumulative IPC: 0.0660727 (Simulation time: 0 hr 55 min 30 sec) 
Heartbeat CPU 2 instructions: 80000001 cycles: 467900205 heartbeat IPC: 0.0665033 cumulative IPC: 0.0662897 (Simulation time: 0 hr 55 min 33 sec) 
Heartbeat CPU 3 instructions: 80000001 cycles: 470916564 heartbeat IPC: 0.0667804 cumulative IPC: 0.0660952 (Simulation time: 0 hr 55 min 46 sec) 
Heartbeat CPU 0 instructions: 90000000 cycles: 606894451 heartbeat IPC: 0.0708479 cumulative IPC: 0.0670828 (Simulation time: 1 hr 6 min 15 sec) 
Heartbeat CPU 1 instructions: 90000000 cycles: 607804338 heartbeat IPC: 0.0711198 cumulative IPC: 0.0672739 (Simulation time: 1 hr 6 min 20 sec) 
Heartbeat CPU 2 instructions: 90000000 cycles: 608295743 heartbeat IPC: 0.0712273 cumulative IPC: 0.0674621 (Simulation time: 1 hr 6 min 22 sec) 
Heartbeat CPU 3 instructions: 90000000 cycles: 612034525 heartbeat IPC: 0.0708627 cumulative IPC: 0.0672259 (Simulation time: 1 hr 6 min 40 sec) 
Heartbeat CPU 0 instructions: 100000003 cycles: 753309203 heartbeat IPC: 0.0682992 cumulative IPC: 0.0673247 (Simulation time: 1 hr 17 min 31 sec) 
Heartbeat CPU 1 instructions: 100000003 cycles: 753617630 heartbeat IPC: 0.0685809 cumulative IPC: 0.0675327 (Simulation time: 1 hr 17 min 33 sec) 
Heartbeat CPU 2 instructions: 100000003 cycles: 754305391 heartbeat IPC: 0.0684886 cumulative IPC: 0.0676654 (Simulation time: 1 hr 17 min 36 sec) 
Heartbeat CPU 3 instructions: 100000003 cycles: 758869944 heartbeat IPC: 0.0681035 cumulative IPC: 0.0673996 (Simulation time: 1 hr 17 min 59 sec) 
Heartbeat CPU 0 instructions: 110000000 cycles: 902956031 heartbeat IPC: 0.066824 cumulative IPC: 0.0672401 (Simulation time: 1 hr 28 min 56 sec) 
Heartbeat CPU 1 instructions: 110000000 cycles: 903043065 heartbeat IPC: 0.066923 cumulative IPC: 0.0674298 (Simulation time: 1 hr 28 min 57 sec) 
Heartbeat CPU 2 instructions: 110000000 cycles: 903666820 heartbeat IPC: 0.0669517 cumulative IPC: 0.0675452 (Simulation time: 1 hr 29 min 0 sec) 
Heartbeat CPU 3 instructions: 110000000 cycles: 908425281 heartbeat IPC: 0.0668649 cumulative IPC: 0.0673099 (Simulation time: 1 hr 29 min 25 sec) 
Heartbeat CPU 0 instructions: 120000000 cycles: 1051197854 heartbeat IPC: 0.0674573 cumulative IPC: 0.0672713 (Simulation time: 1 hr 40 min 12 sec) 
Heartbeat CPU 1 instructions: 120000000 cycles: 1051591280 heartbeat IPC: 0.0673182 cumulative IPC: 0.0674138 (Simulation time: 1 hr 40 min 14 sec) 
Heartbeat CPU 2 instructions: 120000000 cycles: 1051856779 heartbeat IPC: 0.067481 cumulative IPC: 0.067536 (Simulation time: 1 hr 40 min 16 sec) 
Heartbeat CPU 3 instructions: 120000000 cycles: 1058069923 heartbeat IPC: 0.066825 cumulative IPC: 0.0672402 (Simulation time: 1 hr 40 min 49 sec) 
Heartbeat CPU 0 instructions: 130000000 cycles: 1185262925 heartbeat IPC: 0.0745906 cumulative IPC: 0.0681112 (Simulation time: 1 hr 51 min 2 sec) 
Heartbeat CPU 1 instructions: 130000000 cycles: 1185384993 heartbeat IPC: 0.0747419 cumulative IPC: 0.068253 (Simulation time: 1 hr 51 min 3 sec) 
Heartbeat CPU 2 instructions: 130000000 cycles: 1186298394 heartbeat IPC: 0.0743817 cumulative IPC: 0.0683231 (Simulation time: 1 hr 51 min 6 sec) 
Heartbeat CPU 3 instructions: 130000000 cycles: 1197225160 heartbeat IPC: 0.0718622 cumulative IPC: 0.0677852 (Simulation time: 1 hr 51 min 46 sec) 
Heartbeat CPU 0 instructions: 140000002 cycles: 1323147053 heartbeat IPC: 0.0725247 cumulative IPC: 0.0685771 (Simulation time: 2 hr 1 min 56 sec) 
Heartbeat CPU 1 instructions: 140000002 cycles: 1323250367 heartbeat IPC: 0.0725345 cumulative IPC: 0.0687049 (Simulation time: 2 hr 1 min 57 sec) 
Heartbeat CPU 2 instructions: 140000002 cycles: 1323334847 heartbeat IPC: 0.0729733 cumulative IPC: 0.0688109 (Simulation time: 2 hr 1 min 57 sec) 
Heartbeat CPU 3 instructions: 140000003 cycles: 1333048390 heartbeat IPC: 0.0736251 cumulative IPC: 0.0683879 (Simulation time: 2 hr 2 min 45 sec) 
Heartbeat CPU 0 instructions: 150000002 cycles: 1467690707 heartbeat IPC: 0.0691833 cumulative IPC: 0.0686375 (Simulation time: 2 hr 12 min 43 sec) 
Heartbeat CPU 2 instructions: 150000002 cycles: 1468068103 heartbeat IPC: 0.0690926 cumulative IPC: 0.068839 (Simulation time: 2 hr 12 min 45 sec) 
Heartbeat CPU 1 instructions: 150000002 cycles: 1468218644 heartbeat IPC: 0.0689806 cumulative IPC: 0.0687324 (Simulation time: 2 hr 12 min 45 sec) 
Heartbeat CPU 3 instructions: 150000002 cycles: 1483908915 heartbeat IPC: 0.0662864 cumulative IPC: 0.0681718 (Simulation time: 2 hr 13 min 57 sec) 
Heartbeat CPU 0 instructions: 160000000 cycles: 1611508050 heartbeat IPC: 0.0695326 cumulative IPC: 0.0687183 (Simulation time: 2 hr 23 min 19 sec) 
Heartbeat CPU 2 instructions: 160000000 cycles: 1612054772 heartbeat IPC: 0.0694509 cumulative IPC: 0.0688942 (Simulation time: 2 hr 23 min 22 sec) 
Heartbeat CPU 1 instructions: 160000000 cycles: 1612151408 heartbeat IPC: 0.0694769 cumulative IPC: 0.0687996 (Simulation time: 2 hr 23 min 22 sec) 
Heartbeat CPU 3 instructions: 160000000 cycles: 1632390937 heartbeat IPC: 0.0673482 cumulative IPC: 0.0680961 (Simulation time: 2 hr 24 min 50 sec) 
Heartbeat CPU 0 instructions: 170000000 cycles: 1768811254 heartbeat IPC: 0.0635715 cumulative IPC: 0.0682561 (Simulation time: 2 hr 33 min 53 sec) 
Heartbeat CPU 2 instructions: 170000000 cycles: 1769001800 heartbeat IPC: 0.0637158 cumulative IPC: 0.0684303 (Simulation time: 2 hr 33 min 54 sec) 
Heartbeat CPU 1 instructions: 170000000 cycles: 1769831297 heartbeat IPC: 0.0634196 cumulative IPC: 0.0683156 (Simulation time: 2 hr 33 min 56 sec) 
Heartbeat CPU 3 instructions: 170000000 cycles: 1795739290 heartbeat IPC: 0.0612189 cumulative IPC: 0.0674645 (Simulation time: 2 hr 35 min 44 sec) 
Heartbeat CPU 0 instructions: 180000000 cycles: 1917936488 heartbeat IPC: 0.0670577 cumulative IPC: 0.0681621 (Simulation time: 2 hr 44 min 13 sec) 
Heartbeat CPU 2 instructions: 180000000 cycles: 1918043220 heartbeat IPC: 0.0670954 cumulative IPC: 0.0683257 (Simulation time: 2 hr 44 min 14 sec) 
Heartbeat CPU 1 instructions: 180000000 cycles: 1918354685 heartbeat IPC: 0.0673295 cumulative IPC: 0.0682386 (Simulation time: 2 hr 44 min 15 sec) 
Heartbeat CPU 3 instructions: 180000000 cycles: 1951538760 heartbeat IPC: 0.0641851 cumulative IPC: 0.0672004 (Simulation time: 2 hr 46 min 24 sec) 
Heartbeat CPU 0 instructions: 190000000 cycles: 2069842242 heartbeat IPC: 0.0658303 cumulative IPC: 0.0679896 (Simulation time: 2 hr 54 min 8 sec) 
Heartbeat CPU 2 instructions: 190000000 cycles: 2070082410 heartbeat IPC: 0.0657725 cumulative IPC: 0.0681366 (Simulation time: 2 hr 54 min 9 sec) 
Heartbeat CPU 1 instructions: 190000000 cycles: 2070262626 heartbeat IPC: 0.0658293 cumulative IPC: 0.0680603 (Simulation time: 2 hr 54 min 10 sec) 
Heartbeat CPU 3 instructions: 190000000 cycles: 2112348370 heartbeat IPC: 0.0621853 cumulative IPC: 0.0668155 (Simulation time: 2 hr 57 min 11 sec) 
Heartbeat CPU 0 instructions: 200000000 cycles: 2225965634 heartbeat IPC: 0.0640519 cumulative IPC: 0.0677112 (Simulation time: 3 hr 4 min 40 sec) 
Heartbeat CPU 2 instructions: 200000000 cycles: 2226490453 heartbeat IPC: 0.0639353 cumulative IPC: 0.0678392 (Simulation time: 3 hr 4 min 42 sec) 
Heartbeat CPU 1 instructions: 200000000 cycles: 2226633510 heartbeat IPC: 0.0639505 cumulative IPC: 0.0677695 (Simulation time: 3 hr 4 min 43 sec) 
Heartbeat CPU 3 instructions: 200000000 cycles: 2277122259 heartbeat IPC: 0.0606892 cumulative IPC: 0.0663689 (Simulation time: 3 hr 7 min 58 sec) 
Heartbeat CPU 0 instructions: 210000001 cycles: 2370036020 heartbeat IPC: 0.0694105 cumulative IPC: 0.0678153 (Simulation time: 3 hr 14 min 51 sec) 
Heartbeat CPU 2 instructions: 210000001 cycles: 2370403092 heartbeat IPC: 0.0694866 cumulative IPC: 0.0679399 (Simulation time: 3 hr 14 min 53 sec) 
Heartbeat CPU 1 instructions: 210000001 cycles: 2371948915 heartbeat IPC: 0.0688158 cumulative IPC: 0.0678341 (Simulation time: 3 hr 15 min 0 sec) 
Heartbeat CPU 3 instructions: 210000001 cycles: 2426967358 heartbeat IPC: 0.0667356 cumulative IPC: 0.0663917 (Simulation time: 3 hr 18 min 26 sec) 
Heartbeat CPU 0 instructions: 220000000 cycles: 2521845374 heartbeat IPC: 0.0658721 cumulative IPC: 0.0676975 (Simulation time: 3 hr 24 min 59 sec) 
Heartbeat CPU 2 instructions: 220000000 cycles: 2522364114 heartbeat IPC: 0.0658063 cumulative IPC: 0.0678105 (Simulation time: 3 hr 25 min 1 sec) 
Heartbeat CPU 1 instructions: 220000000 cycles: 2523489181 heartbeat IPC: 0.0659891 cumulative IPC: 0.0677225 (Simulation time: 3 hr 25 min 5 sec) 
Heartbeat CPU 3 instructions: 220000000 cycles: 2581767044 heartbeat IPC: 0.0645996 cumulative IPC: 0.0662835 (Simulation time: 3 hr 28 min 59 sec) 
Heartbeat CPU 0 instructions: 230000003 cycles: 2674226075 heartbeat IPC: 0.0656251 cumulative IPC: 0.0675787 (Simulation time: 3 hr 35 min 29 sec) 
Heartbeat CPU 2 instructions: 230000003 cycles: 2674677399 heartbeat IPC: 0.0656542 cumulative IPC: 0.0676869 (Simulation time: 3 hr 35 min 30 sec) 
Heartbeat CPU 1 instructions: 230000003 cycles: 2676010274 heartbeat IPC: 0.0655647 cumulative IPC: 0.0675987 (Simulation time: 3 hr 35 min 36 sec) 
Heartbeat CPU 3 instructions: 230000003 cycles: 2738800577 heartbeat IPC: 0.0636807 cumulative IPC: 0.0661333 (Simulation time: 3 hr 39 min 41 sec) 
Heartbeat CPU 0 instructions: 240000002 cycles: 2830130290 heartbeat IPC: 0.0641419 cumulative IPC: 0.0673882 (Simulation time: 3 hr 45 min 51 sec) 
Heartbeat CPU 2 instructions: 240000002 cycles: 2831282221 heartbeat IPC: 0.063855 cumulative IPC: 0.0674737 (Simulation time: 3 hr 45 min 56 sec) 
Heartbeat CPU 1 instructions: 240000002 cycles: 2832641098 heartbeat IPC: 0.0638444 cumulative IPC: 0.0673899 (Simulation time: 3 hr 46 min 1 sec) 
Heartbeat CPU 3 instructions: 240000002 cycles: 2901185262 heartbeat IPC: 0.0615822 cumulative IPC: 0.0658771 (Simulation time: 3 hr 50 min 10 sec) 
Heartbeat CPU 0 instructions: 250000000 cycles: 2981077334 heartbeat IPC: 0.0662484 cumulative IPC: 0.0673302 (Simulation time: 3 hr 55 min 44 sec) 
Heartbeat CPU 2 instructions: 250000000 cycles: 2981690834 heartbeat IPC: 0.0664855 cumulative IPC: 0.0674236 (Simulation time: 3 hr 55 min 46 sec) 
Heartbeat CPU 1 instructions: 250000000 cycles: 2982765202 heartbeat IPC: 0.0666115 cumulative IPC: 0.0673505 (Simulation time: 3 hr 55 min 51 sec) 
Finished CPU 2 instructions: 200000002 cycles: 2966041318 cumulative IPC: 0.0674299 (Simulation time: 3 hr 55 min 52 sec) 
Finished CPU 1 instructions: 200000001 cycles: 2968737723 cumulative IPC: 0.0673687 (Simulation time: 3 hr 56 min 3 sec) 
Finished CPU 0 instructions: 200000001 cycles: 2969782721 cumulative IPC: 0.067345 (Simulation time: 3 hr 56 min 6 sec) 
Heartbeat CPU 3 instructions: 250000000 cycles: 3055018067 heartbeat IPC: 0.0650056 cumulative IPC: 0.065833 (Simulation time: 4 hr 0 min 53 sec) 
Finished CPU 3 instructions: 200000000 cycles: 3037991960 cumulative IPC: 0.065833 (Simulation time: 4 hr 0 min 53 sec) 

ChampSim completed all CPUs

Total Simulation Statistics (not including warmup)

CPU 0 cumulative IPC: 0.0671697 instructions: 204061049 cycles: 3037991960
ITLB TOTAL     ACCESS:   36458078  HIT:   36458078  MISS:          0  HIT %:        100  MISS %:          0   MPKI: 0
ITLB LOAD      ACCESS:          0  HIT:          0  MISS:          0  HIT %:       -nan  MISS %:       -nan   MPKI: 0
ITLB RFO       ACCESS:          0  HIT:          0  MISS:          0  HIT %:       -nan  MISS %:       -nan   MPKI: 0
ITLB PREFETCH  ACCESS:          0  HIT:          0  MISS:          0  HIT %:       -nan  MISS %:       -nan   MPKI: 0
ITLB WRITEBACK ACCESS:          0  HIT:          0  MISS:          0  HIT %:       -nan  MISS %:       -nan   MPKI: 0
DTLB TOTAL     ACCESS:   43884106  HIT:   23682275  MISS:   20201831  HIT %:    53.9655  MISS %:    46.0345   MPKI: 98.999
DTLB LOAD      ACCESS:          0  HIT:          0  MISS:          0  HIT %:       -nan  MISS %:       -nan   MPKI: 0
DTLB RFO       ACCESS:          0  HIT:          0  MISS:          0  HIT %:       -nan  MISS %:       -nan   MPKI: 0
DTLB PREFETCH  ACCESS:          0  HIT:          0  MISS:          0  HIT %:       -nan  MISS %:       -nan   MPKI: 0
DTLB WRITEBACK ACCESS:          0  HIT:          0  MISS:          0  HIT %:       -nan  MISS %:       -nan   MPKI: 0
STLB TOTAL     ACCESS:   20237855  HIT:   18327576  MISS:    1910279  HIT %:    90.5609  MISS %:    9.43914   MPKI: 9.36131
STLB LOAD      ACCESS:          0  HIT:          0  MISS:          0  HIT %:       -nan  MISS %:       -nan   MPKI: 0
STLB RFO       ACCESS:          0  HIT:          0  MISS:          0  HIT %:       -nan  MISS %:       -nan   MPKI: 0
STLB PREFETCH  ACCESS:          0  HIT:          0  MISS:          0  HIT %:       -nan  MISS %:       -nan   MPKI: 0
STLB WRITEBACK ACCESS:          0  HIT:          0  MISS:          0  HIT %:       -nan  MISS %:       -nan   MPKI: 0
L1D TOTAL     ACCESS:   49281587  HIT:   24806289  MISS:   24475298  HIT %:    50.3358  MISS %:    49.6642   MPKI: 119.941
L1D LOAD      ACCESS:   42333751  HIT:   18197802  MISS:   24135949  HIT %:    42.9865  MISS %:    57.0135   MPKI: 118.278
L1D RFO       ACCESS:    6940728  HIT:    6601504  MISS:     339224  HIT %:    95.1126  MISS %:    4.88744   MPKI: 1.66237
L1D PREFETCH  ACCESS:       7108  HIT:       6983  MISS:        125  HIT %:    98.2414  MISS %:    1.75858   MPKI: 0.000612562
L1D WRITEBACK ACCESS:          0  HIT:          0  MISS:          0  HIT %:       -nan  MISS %:       -nan   MPKI: 0
L1I TOTAL     ACCESS:   39427761  HIT:   39427761  MISS:          0  HIT %:        100  MISS %:          0   MPKI: 0
L1I LOAD      ACCESS:   39427761  HIT:   39427761  MISS:          0  HIT %:        100  MISS %:          0   MPKI: 0
L1I RFO       ACCESS:          0  HIT:          0  MISS:          0  HIT %:       -nan  MISS %:       -nan   MPKI: 0
L1I PREFETCH  ACCESS:          0  HIT:          0  MISS:          0  HIT %:       -nan  MISS %:       -nan   MPKI: 0
L1I WRITEBACK ACCESS:          0  HIT:          0  MISS:          0  HIT %:       -nan  MISS %:       -nan   MPKI: 0
L2C TOTAL     ACCESS:   30719575  HIT:   11398687  MISS:   19320888  HIT %:    37.1056  MISS %:    62.8944   MPKI: 94.6819
L2C LOAD      ACCESS:   24135742  HIT:    6458998  MISS:   17676744  HIT %:    26.7611  MISS %:    73.2389   MPKI: 86.6248
L2C RFO       ACCESS:     339222  HIT:     102348  MISS:     236874  HIT %:    30.1714  MISS %:    69.8286   MPKI: 1.1608
L2C PREFETCH  ACCESS:      50991  HIT:      10319  MISS:      40672  HIT %:    20.2369  MISS %:    79.7631   MPKI: 0.199313
L2C WRITEBACK ACCESS:    3516403  HIT:    3316033  MISS:     200370  HIT %:    94.3018  MISS %:    5.69815   MPKI: 0.981912
PSCL5 TOTAL     ACCESS:    1910755  HIT:    1910755  MISS:          0  HIT %:        100  MISS %:          0   MPKI: 0
PSCL5 LOAD      ACCESS:          0  HIT:          0  MISS:          0  HIT %:       -nan  MISS %:       -nan   MPKI: 0
PSCL5 RFO       ACCESS:          0  HIT:          0  MISS:          0  HIT %:       -nan  MISS %:       -nan   MPKI: 0
PSCL5 PREFETCH  ACCESS:          0  HIT:          0  MISS:          0  HIT %:       -nan  MISS %:       -nan   MPKI: 0
PSCL5 WRITEBACK ACCESS:          0  HIT:          0  MISS:          0  HIT %:       -nan  MISS %:       -nan   MPKI: 0
PSCL4 TOTAL     ACCESS:    1910755  HIT:    1910755  MISS:          0  HIT %:        100  MISS %:          0   MPKI: 0
PSCL4 LOAD      ACCESS:          0  HIT:          0  MISS:          0  HIT %:       -nan  MISS %:       -nan   MPKI: 0
PSCL4 RFO       ACCESS:          0  HIT:          0  MISS:          0  HIT %:       -nan  MISS %:       -nan   MPKI: 0
PSCL4 PREFETCH  ACCESS:          0  HIT:          0  MISS:          0  HIT %:       -nan  MISS %:       -nan   MPKI: 0
PSCL4 WRITEBACK ACCESS:          0  HIT:          0  MISS:          0  HIT %:       -nan  MISS %:       -nan   MPKI: 0
PSCL3 TOTAL     ACCESS:    1910755  HIT:    1910755  MISS:          0  HIT %:        100  MISS %:          0   MPKI: 0
PSCL3 LOAD      ACCESS:          0  HIT:          0  MISS:          0  HIT %:       -nan  MISS %:       -nan   MPKI: 0
PSCL3 RFO       ACCESS:          0  HIT:          0  MISS:          0  HIT %:       -nan  MISS %:       -nan   MPKI: 0
PSCL3 PREFETCH  ACCESS:          0  HIT:          0  MISS:          0  HIT %:       -nan  MISS %:       -nan   MPKI: 0
PSCL3 WRITEBACK ACCESS:          0  HIT:          0  MISS:          0  HIT %:       -nan  MISS %:       -nan   MPKI: 0
PSCL2 TOTAL     ACCESS:    1910666  HIT:    1144293  MISS:     766373  HIT %:    59.8897  MISS %:    40.1103   MPKI: 3.75561
PSCL2 LOAD      ACCESS:          0  HIT:          0  MISS:          0  HIT %:       -nan  MISS %:       -nan   MPKI: 0
PSCL2 RFO       ACCESS:          0  HIT:          0  MISS:          0  HIT %:       -nan  MISS %:       -nan   MPKI: 0
PSCL2 PREFETCH  ACCESS:          0  HIT:          0  MISS:          0  HIT %:       -nan  MISS %:       -nan   MPKI: 0
PSCL2 WRITEBACK ACCESS:          0  HIT:          0  MISS:          0  HIT %:       -nan  MISS %:       -nan   MPKI: 0
LLC TOTAL     ACCESS:   21723339  HIT:    7629258  MISS:   14094081  HIT %:    35.1201  MISS %:    64.8799   MPKI: 69.068
LLC LOAD      ACCESS:   17676574  HIT:    4661560  MISS:   13015014  HIT %:    26.3714  MISS %:    73.6286   MPKI: 63.78
LLC RFO       ACCESS:     236874  HIT:      72227  MISS:     164647  HIT %:    30.4917  MISS %:    69.5083   MPKI: 0.806852
LLC PREFETCH  ACCESS:      40830  HIT:       1528  MISS:      39302  HIT %:    3.74235  MISS %:    96.2577   MPKI: 0.192599
LLC WRITEBACK ACCESS:    2602833  HIT:    2484716  MISS:     118117  HIT %:     95.462  MISS %:    4.53802   MPKI: 0.578832

RAW hits: 1672510
Loads Generated: 67064883
Loads sent to L1D: 65392371
Stores Generated: 7404354
Stores sent to L1D: 7404354

CPU 1 cumulative IPC: 0.0671879 instructions: 204116362 cycles: 3037991960
ITLB TOTAL     ACCESS:   36470744  HIT:   36470744  MISS:          0  HIT %:        100  MISS %:          0   MPKI: 0
ITLB LOAD      ACCESS:          0  HIT:          0  MISS:          0  HIT %:       -nan  MISS %:       -nan   MPKI: 0
ITLB RFO       ACCESS:          0  HIT:          0  MISS:          0  HIT %:       -nan  MISS %:       -nan   MPKI: 0
ITLB PREFETCH  ACCESS:          0  HIT:          0  MISS:          0  HIT %:       -nan  MISS %:       -nan   MPKI: 0
ITLB WRITEBACK ACCESS:          0  HIT:          0  MISS:          0  HIT %:       -nan  MISS %:       -nan   MPKI: 0
DTLB TOTAL     ACCESS:   43894849  HIT:   23682519  MISS:   20212330  HIT %:    53.9528  MISS %:    46.0472   MPKI: 99.0236
DTLB LOAD      ACCESS:          0  HIT:          0  MISS:          0  HIT %:       -nan  MISS %:       -nan   MPKI: 0
DTLB RFO       ACCESS:          0  HIT:          0  MISS:          0  HIT %:       -nan  MISS %:       -nan   MPKI: 0
DTLB PREFETCH  ACCESS:          0  HIT:          0  MISS:          0  HIT %:       -nan  MISS %:       -nan   MPKI: 0
DTLB WRITEBACK ACCESS:          0  HIT:          0  MISS:          0  HIT %:       -nan  MISS %:       -nan   MPKI: 0
STLB TOTAL     ACCESS:   20247573  HIT:   18337030  MISS:    1910543  HIT %:    90.5641  MISS %:    9.43591   MPKI: 9.36007
STLB LOAD      ACCESS:          0  HIT:          0  MISS:          0  HIT %:       -nan  MISS %:       -nan   MPKI: 0
STLB RFO       ACCESS:          0  HIT:          0  MISS:          0  HIT %:       -nan  MISS %:       -nan   MPKI: 0
STLB PREFETCH  ACCESS:          0  HIT:          0  MISS:          0  HIT %:       -nan  MISS %:       -nan   MPKI: 0
STLB WRITEBACK ACCESS:          0  HIT:          0  MISS:          0  HIT %:       -nan  MISS %:       -nan   MPKI: 0
L1D TOTAL     ACCESS:   49290773  HIT:   24805906  MISS:   24484867  HIT %:    50.3257  MISS %:    49.6743   MPKI: 119.955
L1D LOAD      ACCESS:   42345317  HIT:   18199828  MISS:   24145489  HIT %:    42.9796  MISS %:    57.0204   MPKI: 118.293
L1D RFO       ACCESS:    6939435  HIT:    6600212  MISS:     339223  HIT %:    95.1117  MISS %:    4.88834   MPKI: 1.66191
L1D PREFETCH  ACCESS:       6021  HIT:       5866  MISS:        155  HIT %:    97.4257  MISS %:    2.57432   MPKI: 0.000759371
L1D WRITEBACK ACCESS:          0  HIT:          0  MISS:          0  HIT %:       -nan  MISS %:       -nan   MPKI: 0
L1I TOTAL     ACCESS:   39442198  HIT:   39442198  MISS:          0  HIT %:        100  MISS %:          0   MPKI: 0
L1I LOAD      ACCESS:   39442198  HIT:   39442198  MISS:          0  HIT %:        100  MISS %:          0   MPKI: 0
L1I RFO       ACCESS:          0  HIT:          0  MISS:          0  HIT %:       -nan  MISS %:       -nan   MPKI: 0
L1I PREFETCH  ACCESS:          0  HIT:          0  MISS:          0  HIT %:       -nan  MISS %:       -nan   MPKI: 0
L1I WRITEBACK ACCESS:          0  HIT:          0  MISS:          0  HIT %:       -nan  MISS %:       -nan   MPKI: 0
L2C TOTAL     ACCESS:   30728493  HIT:   11372328  MISS:   19356165  HIT %:    37.0091  MISS %:    62.9909   MPKI: 94.8291
L2C LOAD      ACCESS:   24145283  HIT:    6449790  MISS:   17695493  HIT %:    26.7124  MISS %:    73.2876   MPKI: 86.6932
L2C RFO       ACCESS:     339221  HIT:     101894  MISS:     237327  HIT %:    30.0376  MISS %:    69.9624   MPKI: 1.1627
L2C PREFETCH  ACCESS:      50302  HIT:       9612  MISS:      40690  HIT %:    19.1086  MISS %:    80.8914   MPKI: 0.199347
L2C WRITEBACK ACCESS:    3516130  HIT:    3312587  MISS:     203543  HIT %:    94.2112  MISS %:    5.78884   MPKI: 0.997191
PSCL5 TOTAL     ACCESS:    1911026  HIT:    1911026  MISS:          0  HIT %:        100  MISS %:          0   MPKI: 0
PSCL5 LOAD      ACCESS:          0  HIT:          0  MISS:          0  HIT %:       -nan  MISS %:       -nan   MPKI: 0
PSCL5 RFO       ACCESS:          0  HIT:          0  MISS:          0  HIT %:       -nan  MISS %:       -nan   MPKI: 0
PSCL5 PREFETCH  ACCESS:          0  HIT:          0  MISS:          0  HIT %:       -nan  MISS %:       -nan   MPKI: 0
PSCL5 WRITEBACK ACCESS:          0  HIT:          0  MISS:          0  HIT %:       -nan  MISS %:       -nan   MPKI: 0
PSCL4 TOTAL     ACCESS:    1911026  HIT:    1911026  MISS:          0  HIT %:        100  MISS %:          0   MPKI: 0
PSCL4 LOAD      ACCESS:          0  HIT:          0  MISS:          0  HIT %:       -nan  MISS %:       -nan   MPKI: 0
PSCL4 RFO       ACCESS:          0  HIT:          0  MISS:          0  HIT %:       -nan  MISS %:       -nan   MPKI: 0
PSCL4 PREFETCH  ACCESS:          0  HIT:          0  MISS:          0  HIT %:       -nan  MISS %:       -nan   MPKI: 0
PSCL4 WRITEBACK ACCESS:          0  HIT:          0  MISS:          0  HIT %:       -nan  MISS %:       -nan   MPKI: 0
PSCL3 TOTAL     ACCESS:    1911026  HIT:    1911026  MISS:          0  HIT %:        100  MISS %:          0   MPKI: 0
PSCL3 LOAD      ACCESS:          0  HIT:          0  MISS:          0  HIT %:       -nan  MISS %:       -nan   MPKI: 0
PSCL3 RFO       ACCESS:          0  HIT:          0  MISS:          0  HIT %:       -nan  MISS %:       -nan   MPKI: 0
PSCL3 PREFETCH  ACCESS:          0  HIT:          0  MISS:          0  HIT %:       -nan  MISS %:       -nan   MPKI: 0
PSCL3 WRITEBACK ACCESS:          0  HIT:          0  MISS:          0  HIT %:       -nan  MISS %:       -nan   MPKI: 0
PSCL2 TOTAL     ACCESS:    1910931  HIT:    1144495  MISS:     766436  HIT %:     59.892  MISS %:     40.108   MPKI: 3.7549
PSCL2 LOAD      ACCESS:          0  HIT:          0  MISS:          0  HIT %:       -nan  MISS %:       -nan   MPKI: 0
PSCL2 RFO       ACCESS:          0  HIT:          0  MISS:          0  HIT %:       -nan  MISS %:       -nan   MPKI: 0
PSCL2 PREFETCH  ACCESS:          0  HIT:          0  MISS:          0  HIT %:       -nan  MISS %:       -nan   MPKI: 0
PSCL2 WRITEBACK ACCESS:          0  HIT:          0  MISS:          0  HIT %:       -nan  MISS %:       -nan   MPKI: 0
LLC TOTAL     ACCESS:   21755521  HIT:    7662583  MISS:   14092938  HIT %:    35.2213  MISS %:    64.7787   MPKI: 69.0436
LLC LOAD      ACCESS:   17695332  HIT:    4680354  MISS:   13014978  HIT %:    26.4497  MISS %:    73.5503   MPKI: 63.7625
LLC RFO       ACCESS:     237327  HIT:      72274  MISS:     165053  HIT %:    30.4533  MISS %:    69.5467   MPKI: 0.808622
LLC PREFETCH  ACCESS:      40837  HIT:       1308  MISS:      39529  HIT %:    3.20298  MISS %:     96.797   MPKI: 0.193659
LLC WRITEBACK ACCESS:    2602913  HIT:    2486464  MISS:     116449  HIT %:    95.5262  MISS %:     4.4738   MPKI: 0.570503

RAW hits: 1672474
Loads Generated: 67082184
Loads sent to L1D: 65409710
Stores Generated: 7402940
Stores sent to L1D: 7402940

CPU 2 cumulative IPC: 0.0672711 instructions: 204369042 cycles: 3037991960
ITLB TOTAL     ACCESS:   36515409  HIT:   36515409  MISS:          0  HIT %:        100  MISS %:          0   MPKI: 0
ITLB LOAD      ACCESS:          0  HIT:          0  MISS:          0  HIT %:       -nan  MISS %:       -nan   MPKI: 0
ITLB RFO       ACCESS:          0  HIT:          0  MISS:          0  HIT %:       -nan  MISS %:       -nan   MPKI: 0
ITLB PREFETCH  ACCESS:          0  HIT:          0  MISS:          0  HIT %:       -nan  MISS %:       -nan   MPKI: 0
ITLB WRITEBACK ACCESS:          0  HIT:          0  MISS:          0  HIT %:       -nan  MISS %:       -nan   MPKI: 0
DTLB TOTAL     ACCESS:   43948923  HIT:   23706401  MISS:   20242522  HIT %:    53.9408  MISS %:    46.0592   MPKI: 99.0489
DTLB LOAD      ACCESS:          0  HIT:          0  MISS:          0  HIT %:       -nan  MISS %:       -nan   MPKI: 0
DTLB RFO       ACCESS:          0  HIT:          0  MISS:          0  HIT %:       -nan  MISS %:       -nan   MPKI: 0
DTLB PREFETCH  ACCESS:          0  HIT:          0  MISS:          0  HIT %:       -nan  MISS %:       -nan   MPKI: 0
DTLB WRITEBACK ACCESS:          0  HIT:          0  MISS:          0  HIT %:       -nan  MISS %:       -nan   MPKI: 0
STLB TOTAL     ACCESS:   20277094  HIT:   18365708  MISS:    1911386  HIT %:    90.5737  MISS %:    9.42633   MPKI: 9.35262
STLB LOAD      ACCESS:          0  HIT:          0  MISS:          0  HIT %:       -nan  MISS %:       -nan   MPKI: 0
STLB RFO       ACCESS:          0  HIT:          0  MISS:          0  HIT %:       -nan  MISS %:       -nan   MPKI: 0
STLB PREFETCH  ACCESS:          0  HIT:          0  MISS:          0  HIT %:       -nan  MISS %:       -nan   MPKI: 0
STLB WRITEBACK ACCESS:          0  HIT:          0  MISS:          0  HIT %:       -nan  MISS %:       -nan   MPKI: 0
L1D TOTAL     ACCESS:   49347757  HIT:   24831486  MISS:   24516271  HIT %:    50.3194  MISS %:    49.6806   MPKI: 119.961
L1D LOAD      ACCESS:   42396586  HIT:   18219762  MISS:   24176824  HIT %:    42.9746  MISS %:    57.0254   MPKI: 118.3
L1D RFO       ACCESS:    6944906  HIT:    6605590  MISS:     339316  HIT %:    95.1142  MISS %:    4.88583   MPKI: 1.66031
L1D PREFETCH  ACCESS:       6265  HIT:       6134  MISS:        131  HIT %:     97.909  MISS %:    2.09098   MPKI: 0.000640997
L1D WRITEBACK ACCESS:          0  HIT:          0  MISS:          0  HIT %:       -nan  MISS %:       -nan   MPKI: 0
L1I TOTAL     ACCESS:   39491531  HIT:   39491531  MISS:          0  HIT %:        100  MISS %:          0   MPKI: 0
L1I LOAD      ACCESS:   39491531  HIT:   39491531  MISS:          0  HIT %:        100  MISS %:          0   MPKI: 0
L1I RFO       ACCESS:          0  HIT:          0  MISS:          0  HIT %:       -nan  MISS %:       -nan   MPKI: 0
L1I PREFETCH  ACCESS:          0  HIT:          0  MISS:          0  HIT %:       -nan  MISS %:       -nan   MPKI: 0
L1I WRITEBACK ACCESS:          0  HIT:          0  MISS:          0  HIT %:       -nan  MISS %:       -nan   MPKI: 0
L2C TOTAL     ACCESS:   30761068  HIT:   11412106  MISS:   19348962  HIT %:    37.0992  MISS %:    62.9008   MPKI: 94.6766
L2C LOAD      ACCESS:   24176621  HIT:    6470550  MISS:   17706071  HIT %:    26.7637  MISS %:    73.2363   MPKI: 86.6377
L2C RFO       ACCESS:     339316  HIT:     103625  MISS:     235691  HIT %:    30.5394  MISS %:    69.4606   MPKI: 1.15326
L2C PREFETCH  ACCESS:      49112  HIT:       9976  MISS:      39136  HIT %:    20.3128  MISS %:    79.6872   MPKI: 0.191497
L2C WRITEBACK ACCESS:    3517318  HIT:    3318510  MISS:     198808  HIT %:    94.3477  MISS %:    5.65226   MPKI: 0.972789
PSCL5 TOTAL     ACCESS:    1911861  HIT:    1911861  MISS:          0  HIT %:        100  MISS %:          0   MPKI: 0
PSCL5 LOAD      ACCESS:          0  HIT:          0  MISS:          0  HIT %:       -nan  MISS %:       -nan   MPKI: 0
PSCL5 RFO       ACCESS:          0  HIT:          0  MISS:          0  HIT %:       -nan  MISS %:       -nan   MPKI: 0
PSCL5 PREFETCH  ACCESS:          0  HIT:          0  MISS:          0  HIT %:       -nan  MISS %:       -nan   MPKI: 0
PSCL5 WRITEBACK ACCESS:          0  HIT:          0  MISS:          0  HIT %:       -nan  MISS %:       -nan   MPKI: 0
PSCL4 TOTAL     ACCESS:    1911861  HIT:    1911861  MISS:          0  HIT %:        100  MISS %:          0   MPKI: 0
PSCL4 LOAD      ACCESS:          0  HIT:          0  MISS:          0  HIT %:       -nan  MISS %:       -nan   MPKI: 0
PSCL4 RFO       ACCESS:          0  HIT:          0  MISS:          0  HIT %:       -nan  MISS %:       -nan   MPKI: 0
PSCL4 PREFETCH  ACCESS:          0  HIT:          0  MISS:          0  HIT %:       -nan  MISS %:       -nan   MPKI: 0
PSCL4 WRITEBACK ACCESS:          0  HIT:          0  MISS:          0  HIT %:       -nan  MISS %:       -nan   MPKI: 0
PSCL3 TOTAL     ACCESS:    1911861  HIT:    1911861  MISS:          0  HIT %:        100  MISS %:          0   MPKI: 0
PSCL3 LOAD      ACCESS:          0  HIT:          0  MISS:          0  HIT %:       -nan  MISS %:       -nan   MPKI: 0
PSCL3 RFO       ACCESS:          0  HIT:          0  MISS:          0  HIT %:       -nan  MISS %:       -nan   MPKI: 0
PSCL3 PREFETCH  ACCESS:          0  HIT:          0  MISS:          0  HIT %:       -nan  MISS %:       -nan   MPKI: 0
PSCL3 WRITEBACK ACCESS:          0  HIT:          0  MISS:          0  HIT %:       -nan  MISS %:       -nan   MPKI: 0
PSCL2 TOTAL     ACCESS:    1911791  HIT:    1145021  MISS:     766770  HIT %:    59.8926  MISS %:    40.1074   MPKI: 3.75189
PSCL2 LOAD      ACCESS:          0  HIT:          0  MISS:          0  HIT %:       -nan  MISS %:       -nan   MPKI: 0
PSCL2 RFO       ACCESS:          0  HIT:          0  MISS:          0  HIT %:       -nan  MISS %:       -nan   MPKI: 0
PSCL2 PREFETCH  ACCESS:          0  HIT:          0  MISS:          0  HIT %:       -nan  MISS %:       -nan   MPKI: 0
PSCL2 WRITEBACK ACCESS:          0  HIT:          0  MISS:          0  HIT %:       -nan  MISS %:       -nan   MPKI: 0
LLC TOTAL     ACCESS:   21751246  HIT:    7656894  MISS:   14094352  HIT %:    35.2021  MISS %:    64.7979   MPKI: 68.9652
LLC LOAD      ACCESS:   17705914  HIT:    4689618  MISS:   13016296  HIT %:    26.4862  MISS %:    73.5138   MPKI: 63.6902
LLC RFO       ACCESS:     235691  HIT:      70495  MISS:     165196  HIT %:    29.9099  MISS %:    70.0901   MPKI: 0.808322
LLC PREFETCH  ACCESS:      39286  HIT:       1243  MISS:      38043  HIT %:    3.16398  MISS %:     96.836   MPKI: 0.186149
LLC WRITEBACK ACCESS:    2601099  HIT:    2482769  MISS:     118330  HIT %:    95.4508  MISS %:    4.54923   MPKI: 0.579002

RAW hits: 1673970
Loads Generated: 67160766
Loads sent to L1D: 65486795
Stores Generated: 7408806
Stores sent to L1D: 7408806

CPU 3 cumulative IPC: 0.065833 instructions: 200000000 cycles: 3037991960
ITLB TOTAL     ACCESS:   35763089  HIT:   35763089  MISS:          0  HIT %:        100  MISS %:          0   MPKI: 0
ITLB LOAD      ACCESS:          0  HIT:          0  MISS:          0  HIT %:       -nan  MISS %:       -nan   MPKI: 0
ITLB RFO       ACCESS:          0  HIT:          0  MISS:          0  HIT %:       -nan  MISS %:       -nan   MPKI: 0
ITLB PREFETCH  ACCESS:          0  HIT:          0  MISS:          0  HIT %:       -nan  MISS %:       -nan   MPKI: 0
ITLB WRITEBACK ACCESS:          0  HIT:          0  MISS:          0  HIT %:       -nan  MISS %:       -nan   MPKI: 0
DTLB TOTAL     ACCESS:   43004960  HIT:   23169621  MISS:   19835339  HIT %:    53.8766  MISS %:    46.1234   MPKI: 99.1767
DTLB LOAD      ACCESS:          0  HIT:          0  MISS:          0  HIT %:       -nan  MISS %:       -nan   MPKI: 0
DTLB RFO       ACCESS:          0  HIT:          0  MISS:          0  HIT %:       -nan  MISS %:       -nan   MPKI: 0
DTLB PREFETCH  ACCESS:          0  HIT:          0  MISS:          0  HIT %:       -nan  MISS %:       -nan   MPKI: 0
DTLB WRITEBACK ACCESS:          0  HIT:          0  MISS:          0  HIT %:       -nan  MISS %:       -nan   MPKI: 0
STLB TOTAL     ACCESS:   19871428  HIT:   18003793  MISS:    1867635  HIT %:    90.6014  MISS %:    9.39859   MPKI: 9.33817
STLB LOAD      ACCESS:          0  HIT:          0  MISS:          0  HIT %:       -nan  MISS %:       -nan   MPKI: 0
STLB RFO       ACCESS:          0  HIT:          0  MISS:          0  HIT %:       -nan  MISS %:       -nan   MPKI: 0
STLB PREFETCH  ACCESS:          0  HIT:          0  MISS:          0  HIT %:       -nan  MISS %:       -nan   MPKI: 0
STLB WRITEBACK ACCESS:          0  HIT:          0  MISS:          0  HIT %:       -nan  MISS %:       -nan   MPKI: 0
L1D TOTAL     ACCESS:   48287917  HIT:   24301451  MISS:   23986466  HIT %:    50.3262  MISS %:    49.6738   MPKI: 119.932
L1D LOAD      ACCESS:   41504781  HIT:   17850269  MISS:   23654512  HIT %:    43.0077  MISS %:    56.9923   MPKI: 118.273
L1D RFO       ACCESS:    6776334  HIT:    6444550  MISS:     331784  HIT %:    95.1038  MISS %:    4.89622   MPKI: 1.65892
L1D PREFETCH  ACCESS:       6802  HIT:       6632  MISS:        170  HIT %:    97.5007  MISS %:    2.49926   MPKI: 0.00085
L1D WRITEBACK ACCESS:          0  HIT:          0  MISS:          0  HIT %:       -nan  MISS %:       -nan   MPKI: 0
L1I TOTAL     ACCESS:   38674195  HIT:   38674195  MISS:          0  HIT %:        100  MISS %:          0   MPKI: 0
L1I LOAD      ACCESS:   38674195  HIT:   38674195  MISS:          0  HIT %:        100  MISS %:          0   MPKI: 0
L1I RFO       ACCESS:          0  HIT:          0  MISS:          0  HIT %:       -nan  MISS %:       -nan   MPKI: 0
L1I PREFETCH  ACCESS:          0  HIT:          0  MISS:          0  HIT %:       -nan  MISS %:       -nan   MPKI: 0
L1I WRITEBACK ACCESS:          0  HIT:          0  MISS:          0  HIT %:       -nan  MISS %:       -nan   MPKI: 0
L2C TOTAL     ACCESS:   30074650  HIT:   11133215  MISS:   18941435  HIT %:    37.0186  MISS %:    62.9814   MPKI: 94.7072
L2C LOAD      ACCESS:   23654306  HIT:    6329391  MISS:   17324915  HIT %:    26.7579  MISS %:    73.2421   MPKI: 86.6246
L2C RFO       ACCESS:     331782  HIT:      99897  MISS:     231885  HIT %:    30.1092  MISS %:    69.8908   MPKI: 1.15942
L2C PREFETCH  ACCESS:      49266  HIT:      10020  MISS:      39246  HIT %:    20.3386  MISS %:    79.6614   MPKI: 0.19623
L2C WRITEBACK ACCESS:    3421801  HIT:    3223722  MISS:     198079  HIT %:    94.2113  MISS %:    5.78874   MPKI: 0.990395
PSCL5 TOTAL     ACCESS:    1868116  HIT:    1868116  MISS:          0  HIT %:        100  MISS %:          0   MPKI: 0
PSCL5 LOAD      ACCESS:          0  HIT:          0  MISS:          0  HIT %:       -nan  MISS %:       -nan   MPKI: 0
PSCL5 RFO       ACCESS:          0  HIT:          0  MISS:          0  HIT %:       -nan  MISS %:       -nan   MPKI: 0
PSCL5 PREFETCH  ACCESS:          0  HIT:          0  MISS:          0  HIT %:       -nan  MISS %:       -nan   MPKI: 0
PSCL5 WRITEBACK ACCESS:          0  HIT:          0  MISS:          0  HIT %:       -nan  MISS %:       -nan   MPKI: 0
PSCL4 TOTAL     ACCESS:    1868116  HIT:    1868116  MISS:          0  HIT %:        100  MISS %:          0   MPKI: 0
PSCL4 LOAD      ACCESS:          0  HIT:          0  MISS:          0  HIT %:       -nan  MISS %:       -nan   MPKI: 0
PSCL4 RFO       ACCESS:          0  HIT:          0  MISS:          0  HIT %:       -nan  MISS %:       -nan   MPKI: 0
PSCL4 PREFETCH  ACCESS:          0  HIT:          0  MISS:          0  HIT %:       -nan  MISS %:       -nan   MPKI: 0
PSCL4 WRITEBACK ACCESS:          0  HIT:          0  MISS:          0  HIT %:       -nan  MISS %:       -nan   MPKI: 0
PSCL3 TOTAL     ACCESS:    1868116  HIT:    1868116  MISS:          0  HIT %:        100  MISS %:          0   MPKI: 0
PSCL3 LOAD      ACCESS:          0  HIT:          0  MISS:          0  HIT %:       -nan  MISS %:       -nan   MPKI: 0
PSCL3 RFO       ACCESS:          0  HIT:          0  MISS:          0  HIT %:       -nan  MISS %:       -nan   MPKI: 0
PSCL3 PREFETCH  ACCESS:          0  HIT:          0  MISS:          0  HIT %:       -nan  MISS %:       -nan   MPKI: 0
PSCL3 WRITEBACK ACCESS:          0  HIT:          0  MISS:          0  HIT %:       -nan  MISS %:       -nan   MPKI: 0
PSCL2 TOTAL     ACCESS:    1868023  HIT:    1118737  MISS:     749286  HIT %:    59.8888  MISS %:    40.1112   MPKI: 3.74643
PSCL2 LOAD      ACCESS:          0  HIT:          0  MISS:          0  HIT %:       -nan  MISS %:       -nan   MPKI: 0
PSCL2 RFO       ACCESS:          0  HIT:          0  MISS:          0  HIT %:       -nan  MISS %:       -nan   MPKI: 0
PSCL2 PREFETCH  ACCESS:          0  HIT:          0  MISS:          0  HIT %:       -nan  MISS %:       -nan   MPKI: 0
PSCL2 WRITEBACK ACCESS:          0  HIT:          0  MISS:          0  HIT %:       -nan  MISS %:       -nan   MPKI: 0
LLC TOTAL     ACCESS:   21269036  HIT:    7433990  MISS:   13835046  HIT %:    34.9522  MISS %:    65.0478   MPKI: 69.1752
LLC LOAD      ACCESS:   17324749  HIT:    4539915  MISS:   12784834  HIT %:    26.2048  MISS %:    73.7952   MPKI: 63.9242
LLC RFO       ACCESS:     231885  HIT:      72088  MISS:     159797  HIT %:    31.0878  MISS %:    68.9122   MPKI: 0.798985
LLC PREFETCH  ACCESS:      39406  HIT:       1448  MISS:      37958  HIT %:    3.67457  MISS %:    96.3254   MPKI: 0.18979
LLC WRITEBACK ACCESS:    2525686  HIT:    2412930  MISS:     112756  HIT %:    95.5356  MISS %:    4.46437   MPKI: 0.56378

RAW hits: 1636193
Loads Generated: 65724997
Loads sent to L1D: 64088801
Stores Generated: 7230990
Stores sent to L1D: 7230990

Region of Interest Statistics

CPU 0 cumulative IPC: 0.067345 instructions: 200000001 cycles: 2969782721
ITLB TOTAL     ACCESS:   35761014  HIT:   35761014  MISS:          0  HIT %:        100  MISS %:          0   MPKI: 0
ITLB LOAD TRANSLATION ACCESS:   35761014  HIT:   35761014  MISS:          0  HIT %:        100  MISS %:          0   MPKI: 0
ITLB PREFETCH  REQUESTED:          0  ISSUED:          0  USEFUL:          0  USELESS:          0
ITLB USEFUL LOAD PREFETCHES:          0 PREFETCH ISSUED TO LOWER LEVEL:          0  ACCURACY: -nan
ITLB TIMELY PREFETCHES:          0 LATE PREFETCHES: 0 DROPPED PREFETCHES: 0
ITLB PREFETCHES SAME FILL-ORIGIN LEVEL: 0 DIFFERENT FILL-ORIGIN LEVEL: 0
ITLB AVERAGE MISS LATENCY: -nan cycles
ITLB RQ	ACCESS:   39427761	FORWARD:          0	MERGED:    2969684	TO_CACHE:   36458077

DTLB TOTAL     ACCESS:   43005390  HIT:   23178667  MISS:   19826723  HIT %:    53.8971  MISS %:    46.1029   MPKI: 99.1336
DTLB LOAD TRANSLATION ACCESS:   43005390  HIT:   23178667  MISS:   19826723  HIT %:    53.8971  MISS %:    46.1029   MPKI: 99.1336
DTLB PREFETCH  REQUESTED:          0  ISSUED:          0  USEFUL:          0  USELESS:          0
DTLB USEFUL LOAD PREFETCHES:          0 PREFETCH ISSUED TO LOWER LEVEL:          0  ACCURACY: -nan
DTLB TIMELY PREFETCHES:          0 LATE PREFETCHES: 0 DROPPED PREFETCHES: 0
DTLB PREFETCHES SAME FILL-ORIGIN LEVEL: 0 DIFFERENT FILL-ORIGIN LEVEL: 0
DTLB AVERAGE MISS LATENCY: 27.0609 cycles
DTLB RQ	ACCESS:   49401992	FORWARD:          0	MERGED:    5456300	TO_CACHE:   43945692

STLB TOTAL     ACCESS:   19861937  HIT:   17994606  MISS:    1867331  HIT %:    90.5984  MISS %:    9.40156   MPKI: 9.33665
STLB LOAD TRANSLATION ACCESS:   19826723  HIT:   17960590  MISS:    1866133  HIT %:    90.5878  MISS %:    9.41221   MPKI: 9.33066
STLB TRANSLATION FROM L1D PREFETCHER ACCESS:      35214  HIT:      34016  MISS:       1198  HIT %:    96.5979  MISS %:    3.40206   MPKI: 0.00599
STLB PREFETCH  REQUESTED:          0  ISSUED:          0  USEFUL:        930  USELESS:        306
STLB USEFUL LOAD PREFETCHES:        930 PREFETCH ISSUED TO LOWER LEVEL:          0  ACCURACY: inf
STLB TIMELY PREFETCHES:        930 LATE PREFETCHES: 15 DROPPED PREFETCHES: 476
STLB PREFETCHES SAME FILL-ORIGIN LEVEL: 0 DIFFERENT FILL-ORIGIN LEVEL: 0
STLB AVERAGE MISS LATENCY: 189.791 cycles
STLB RQ	ACCESS:   20261771	FORWARD:          0	MERGED:      23412	TO_CACHE:   20238359

STLB Hit, L1D data hit: 0
STLB Hit, L2C data hit: 0
STLB Hit, LLC data hit: 0
STLB Hit, LLC data miss: 0
STLB STLB hints to L2: 0
L1D TOTAL     ACCESS:   48294791  HIT:   24312686  MISS:   23982105  HIT %:    50.3423  MISS %:    49.6577   MPKI: 119.911
L1D LOAD      ACCESS:   41505396  HIT:   17855288  MISS:   23650108  HIT %:    43.0192  MISS %:    56.9808   MPKI: 118.251
L1D RFO       ACCESS:    6782366  HIT:    6450494  MISS:     331872  HIT %:    95.1068  MISS %:    4.89316   MPKI: 1.65936
L1D PREFETCH  ACCESS:       7029  HIT:       6904  MISS:        125  HIT %:    98.2217  MISS %:    1.77835   MPKI: 0.000625
L1D PREFETCH  REQUESTED:     120281  ISSUED:     120249  USEFUL:         29  USELESS:         96
L1D USEFUL LOAD PREFETCHES:         29 PREFETCH ISSUED TO LOWER LEVEL:      52255  ACCURACY: 0.0554971
L1D TIMELY PREFETCHES:         29 LATE PREFETCHES: 0 DROPPED PREFETCHES: 604
L1D PREFETCHES SAME FILL-ORIGIN LEVEL: 125 DIFFERENT FILL-ORIGIN LEVEL: 52130
L1D AVERAGE MISS LATENCY: 227.193 cycles
L1D RQ	ACCESS:   65392371	FORWARD:          0	MERGED:   22949538	TO_CACHE:   42436695
L1D WQ	ACCESS:    7404354	FORWARD:       6151	MERGED:     439057	TO_CACHE:    6965297
L1D PQ	ACCESS:      60309	FORWARD:          0	MERGED:        356	TO_CACHE:      59940

L1D UNIQUE REGIONS ACCESSED: 0
L1D REGIONS CONFLICTS: 0
L1D Cross Page Prefetch Requests: 13458
L1D Same Page Prefetch Requests: 52647
L1D ROI Sum of L1D PQ occupancy: 872438
L1D PREFETCHES PUSHED FROM L2C: 0
L1I TOTAL     ACCESS:   38671849  HIT:   38671849  MISS:          0  HIT %:        100  MISS %:          0   MPKI: 0
L1I LOAD      ACCESS:   38671849  HIT:   38671849  MISS:          0  HIT %:        100  MISS %:          0   MPKI: 0
L1I PREFETCH  REQUESTED:          0  ISSUED:          0  USEFUL:          0  USELESS:          0
L1I USEFUL LOAD PREFETCHES:          0 PREFETCH ISSUED TO LOWER LEVEL:          0  ACCURACY: -nan
L1I TIMELY PREFETCHES:          0 LATE PREFETCHES: 0 DROPPED PREFETCHES: 0
L1I PREFETCHES SAME FILL-ORIGIN LEVEL: 0 DIFFERENT FILL-ORIGIN LEVEL: 0
L1I AVERAGE MISS LATENCY: -nan cycles
L1I RQ	ACCESS:   56898042	FORWARD:          0	MERGED:   17470281	TO_CACHE:   39427761

BTB TOTAL     ACCESS:   43623099  HIT:   43606204  MISS:      16895  HIT %:    99.9613  MISS %:  0.0387295   MPKI: 0.084475
BTB BRANCH_DIRECT_JUMP	ACCESS:    1883196  HIT:    1883193  MISS:          3
BTB BRANCH_INDIRECT	ACCESS:          0  HIT:          0  MISS:          0
BTB BRANCH_CONDITIONAL	ACCESS:   41382597  HIT:   41382585  MISS:         12
BTB BRANCH_DIRECT_CALL	ACCESS:     178653  HIT:     178652  MISS:          1
BTB BRANCH_INDIRECT_CALL	ACCESS:          0  HIT:          0  MISS:          0
BTB BRANCH_RETURN	ACCESS:     178653  HIT:     161774  MISS:      16879
BTB BRANCH_OTHER ACCESS:          0  HIT:          0  MISS:          0

L2C TOTAL     ACCESS:   30072951  HIT:   11167004  MISS:   18905947  HIT %:    37.1331  MISS %:    62.8669   MPKI: 94.5297
L2C LOAD      ACCESS:   23649904  HIT:    6349542  MISS:   17300362  HIT %:    26.8481  MISS %:    73.1519   MPKI: 86.5018
L2C DATA LOAD MPKI: 86.5018
L2C INSTRUCTION LOAD MPKI: 0
L2C RFO       ACCESS:     331870  HIT:     100395  MISS:     231475  HIT %:    30.2513  MISS %:    69.7487   MPKI: 1.15737
L2C PREFETCH  ACCESS:      49898  HIT:      10177  MISS:      39721  HIT %:    20.3956  MISS %:    79.6044   MPKI: 0.198605
L2C DATA PREFETCH MPKI: 0.198605
L2C INSTRUCTION PREFETCH MPKI: 0
L2C WRITEBACK ACCESS:    3424295  HIT:    3230218  MISS:     194077  HIT %:    94.3324  MISS %:    5.66765   MPKI: 0.970385
L2C LOAD TRANSLATION ACCESS:    2615150  HIT:    1475078  MISS:    1140072  HIT %:    56.4051  MISS %:    43.5949   MPKI: 5.70036
L2C TRANSLATION FROM L1D PREFETCHER ACCESS:       1834  HIT:       1594  MISS:        240  HIT %:    86.9138  MISS %:    13.0862   MPKI: 0.0012
L2C PREFETCH  REQUESTED:          0  ISSUED:          0  USEFUL:       6852  USELESS:      34062
L2C USEFUL LOAD PREFETCHES:       6852 PREFETCH ISSUED TO LOWER LEVEL:      40830  ACCURACY: 16.7818
L2C TIMELY PREFETCHES:       6852 LATE PREFETCHES: 158 DROPPED PREFETCHES: 0
L2C PREFETCHES SAME FILL-ORIGIN LEVEL: 40736 DIFFERENT FILL-ORIGIN LEVEL: 0
L2C AVERAGE MISS LATENCY: 286.236 cycles
L2C RQ	ACCESS:   27152390	FORWARD:          0	MERGED:          0	TO_CACHE:   27152181
L2C WQ	ACCESS:    3516403	FORWARD:        210	MERGED:          0	TO_CACHE:    3516403
L2C PQ	ACCESS:      52255	FORWARD:          0	MERGED:          1	TO_CACHE:      52253

L2C Instructions Evicting Data 0
L2C Translations Evicting Data 1051555
L2C Data Evicting Data 16926186
L2C Instructions Evicting Instructions 0
L2C Translations Evicting Instructions 0
L2C Data Evicting Instructions 0
L2C Instructions Evicting Translations 0
L2C Translations Evicting Translations 114673
L2C Data Evicting Translations 1028104
L2C Dense regions hint from L2: 0
PSCL5 TOTAL     ACCESS:    1867793  HIT:    1867793  MISS:          0  HIT %:        100  MISS %:          0   MPKI: 0
PSCL5 LOAD TRANSLATION ACCESS:    1866118  HIT:    1866118  MISS:          0  HIT %:        100  MISS %:          0   MPKI: 0
PSCL5 TRANSLATION FROM L1D PREFETCHER ACCESS:       1675  HIT:       1675  MISS:          0  HIT %:        100  MISS %:          0   MPKI: 0
PSCL5 PREFETCH  REQUESTED:          0  ISSUED:          0  USEFUL:          0  USELESS:          0
PSCL5 USEFUL LOAD PREFETCHES:          0 PREFETCH ISSUED TO LOWER LEVEL:          0  ACCURACY: -nan
PSCL5 TIMELY PREFETCHES:          0 LATE PREFETCHES: 0 DROPPED PREFETCHES: 0
PSCL5 PREFETCHES SAME FILL-ORIGIN LEVEL: 0 DIFFERENT FILL-ORIGIN LEVEL: 0

PSCL4 TOTAL     ACCESS:    1867793  HIT:    1867793  MISS:          0  HIT %:        100  MISS %:          0   MPKI: 0
PSCL4 LOAD TRANSLATION ACCESS:    1866118  HIT:    1866118  MISS:          0  HIT %:        100  MISS %:          0   MPKI: 0
PSCL4 TRANSLATION FROM L1D PREFETCHER ACCESS:       1675  HIT:       1675  MISS:          0  HIT %:        100  MISS %:          0   MPKI: 0
PSCL4 PREFETCH  REQUESTED:          0  ISSUED:          0  USEFUL:          0  USELESS:          0
PSCL4 USEFUL LOAD PREFETCHES:          0 PREFETCH ISSUED TO LOWER LEVEL:          0  ACCURACY: -nan
PSCL4 TIMELY PREFETCHES:          0 LATE PREFETCHES: 0 DROPPED PREFETCHES: 0
PSCL4 PREFETCHES SAME FILL-ORIGIN LEVEL: 0 DIFFERENT FILL-ORIGIN LEVEL: 0

PSCL3 TOTAL     ACCESS:    1867793  HIT:    1867793  MISS:          0  HIT %:        100  MISS %:          0   MPKI: 0
PSCL3 LOAD TRANSLATION ACCESS:    1866118  HIT:    1866118  MISS:          0  HIT %:        100  MISS %:          0   MPKI: 0
PSCL3 TRANSLATION FROM L1D PREFETCHER ACCESS:       1675  HIT:       1675  MISS:          0  HIT %:        100  MISS %:          0   MPKI: 0
PSCL3 PREFETCH  REQUESTED:          0  ISSUED:          0  USEFUL:          0  USELESS:          0
PSCL3 USEFUL LOAD PREFETCHES:          0 PREFETCH ISSUED TO LOWER LEVEL:          0  ACCURACY: -nan
PSCL3 TIMELY PREFETCHES:          0 LATE PREFETCHES: 0 DROPPED PREFETCHES: 0
PSCL3 PREFETCHES SAME FILL-ORIGIN LEVEL: 0 DIFFERENT FILL-ORIGIN LEVEL: 0

PSCL2 TOTAL     ACCESS:    1867706  HIT:    1118602  MISS:     749104  HIT %:    59.8918  MISS %:    40.1082   MPKI: 3.74552
PSCL2 LOAD TRANSLATION ACCESS:    1866190  HIT:    1117086  MISS:     749104  HIT %:    59.8592  MISS %:    40.1408   MPKI: 3.74552
PSCL2 TRANSLATION FROM L1D PREFETCHER ACCESS:       1516  HIT:       1516  MISS:          0  HIT %:        100  MISS %:          0   MPKI: 0
PSCL2 PREFETCH  REQUESTED:          0  ISSUED:          0  USEFUL:          0  USELESS:          0
PSCL2 USEFUL LOAD PREFETCHES:          0 PREFETCH ISSUED TO LOWER LEVEL:          0  ACCURACY: -nan
PSCL2 TIMELY PREFETCHES:          0 LATE PREFETCHES: 0 DROPPED PREFETCHES: 0
PSCL2 PREFETCHES SAME FILL-ORIGIN LEVEL: 0 DIFFERENT FILL-ORIGIN LEVEL: 0

LLC TOTAL     ACCESS:   21235135  HIT:    7454258  MISS:   13780877  HIT %:    35.1034  MISS %:    64.8966   MPKI: 68.9044
LLC LOAD      ACCESS:   17300192  HIT:    4572774  MISS:   12727418  HIT %:    26.4319  MISS %:    73.5681   MPKI: 63.6371
LLC RFO       ACCESS:     231475  HIT:      70679  MISS:     160796  HIT %:    30.5342  MISS %:    69.4658   MPKI: 0.80398
LLC PREFETCH  ACCESS:      39879  HIT:       1480  MISS:      38399  HIT %:    3.71123  MISS %:    96.2888   MPKI: 0.191995
LLC WRITEBACK ACCESS:    2523277  HIT:    2408552  MISS:     114725  HIT %:    95.4533  MISS %:    4.54667   MPKI: 0.573625
LLC LOAD TRANSLATION ACCESS:    1140072  HIT:     400722  MISS:     739350  HIT %:    35.1488  MISS %:    64.8512   MPKI: 3.69675
LLC TRANSLATION FROM L1D PREFETCHER ACCESS:        240  HIT:         51  MISS:        189  HIT %:      21.25  MISS %:      78.75   MPKI: 0.000945
LLC PREFETCH  REQUESTED:          0  ISSUED:          0  USEFUL:       3821  USELESS:     151487
LLC USEFUL LOAD PREFETCHES:       3821 PREFETCH ISSUED TO LOWER LEVEL:     154832  ACCURACY: 2.46784
LLC TIMELY PREFETCHES:       3821 LATE PREFETCHES: 0 DROPPED PREFETCHES: 0
LLC PREFETCHES SAME FILL-ORIGIN LEVEL: 0 DIFFERENT FILL-ORIGIN LEVEL: 0
LLC AVERAGE MISS LATENCY: 1405.75 cycles
LLC RQ	ACCESS:   76006293	FORWARD:          0	MERGED:          0	TO_CACHE:   76006254
LLC WQ	ACCESS:   10332531	FORWARD:         39	MERGED:          0	TO_CACHE:   10332531
LLC PQ	ACCESS:     160359	FORWARD:          0	MERGED:          0	TO_CACHE:     160359

LLC Dense regions hint to LLC: 0

RAW hits: 1635949
Loads Generated: 65725392
Loads sent to L1D: 64089443
Stores Generated: 7237399
Stores sent to L1D: 7237397
Major fault: 0 Minor fault: 138349
Allocated PAGES: 551648

CPU 1 cumulative IPC: 0.0673687 instructions: 200000001 cycles: 2968737723
ITLB TOTAL     ACCESS:   35763600  HIT:   35763600  MISS:          0  HIT %:        100  MISS %:          0   MPKI: 0
ITLB LOAD TRANSLATION ACCESS:   35763600  HIT:   35763600  MISS:          0  HIT %:        100  MISS %:          0   MPKI: 0
ITLB PREFETCH  REQUESTED:          0  ISSUED:          0  USEFUL:          0  USELESS:          0
ITLB USEFUL LOAD PREFETCHES:          0 PREFETCH ISSUED TO LOWER LEVEL:          0  ACCURACY: -nan
ITLB TIMELY PREFETCHES:          0 LATE PREFETCHES: 0 DROPPED PREFETCHES: 0
ITLB PREFETCHES SAME FILL-ORIGIN LEVEL: 0 DIFFERENT FILL-ORIGIN LEVEL: 0
ITLB AVERAGE MISS LATENCY: -nan cycles
ITLB RQ	ACCESS:   39442198	FORWARD:          0	MERGED:    2971454	TO_CACHE:   36470744

DTLB TOTAL     ACCESS:   43003959  HIT:   23174022  MISS:   19829937  HIT %:    53.8881  MISS %:    46.1119   MPKI: 99.1497
DTLB LOAD TRANSLATION ACCESS:   43003959  HIT:   23174022  MISS:   19829937  HIT %:    53.8881  MISS %:    46.1119   MPKI: 99.1497
DTLB PREFETCH  REQUESTED:          0  ISSUED:          0  USEFUL:          0  USELESS:          0
DTLB USEFUL LOAD PREFETCHES:          0 PREFETCH ISSUED TO LOWER LEVEL:          0  ACCURACY: -nan
DTLB TIMELY PREFETCHES:          0 LATE PREFETCHES: 0 DROPPED PREFETCHES: 0
DTLB PREFETCHES SAME FILL-ORIGIN LEVEL: 0 DIFFERENT FILL-ORIGIN LEVEL: 0
DTLB AVERAGE MISS LATENCY: 27.1849 cycles
DTLB RQ	ACCESS:   49412072	FORWARD:          0	MERGED:    5455626	TO_CACHE:   43956446

STLB TOTAL     ACCESS:   19864318  HIT:   17996914  MISS:    1867404  HIT %:    90.5992  MISS %:     9.4008   MPKI: 9.33702
STLB LOAD TRANSLATION ACCESS:   19829937  HIT:   17963728  MISS:    1866209  HIT %:    90.5889  MISS %:    9.41107   MPKI: 9.33104
STLB TRANSLATION FROM L1D PREFETCHER ACCESS:      34381  HIT:      33186  MISS:       1195  HIT %:    96.5242  MISS %:    3.47576   MPKI: 0.005975
STLB PREFETCH  REQUESTED:          0  ISSUED:          0  USEFUL:        952  USELESS:        280
STLB USEFUL LOAD PREFETCHES:        952 PREFETCH ISSUED TO LOWER LEVEL:          0  ACCURACY: inf
STLB TIMELY PREFETCHES:        952 LATE PREFETCHES: 8 DROPPED PREFETCHES: 483
STLB PREFETCHES SAME FILL-ORIGIN LEVEL: 0 DIFFERENT FILL-ORIGIN LEVEL: 0
STLB AVERAGE MISS LATENCY: 191.107 cycles
STLB RQ	ACCESS:   20270271	FORWARD:          0	MERGED:      22186	TO_CACHE:   20248085

STLB Hit, L1D data hit: 0
STLB Hit, L2C data hit: 0
STLB Hit, LLC data hit: 0
STLB Hit, LLC data miss: 0
STLB STLB hints to L2: 0
L1D TOTAL     ACCESS:   48291881  HIT:   24309440  MISS:   23982441  HIT %:    50.3386  MISS %:    49.6614   MPKI: 119.912
L1D LOAD      ACCESS:   41505585  HIT:   17855157  MISS:   23650428  HIT %:    43.0187  MISS %:    56.9813   MPKI: 118.252
L1D RFO       ACCESS:    6780435  HIT:    6448558  MISS:     331877  HIT %:    95.1054  MISS %:    4.89463   MPKI: 1.65938
L1D PREFETCH  ACCESS:       5861  HIT:       5725  MISS:        136  HIT %:    97.6796  MISS %:    2.32042   MPKI: 0.00068
L1D PREFETCH  REQUESTED:     116123  ISSUED:     116092  USEFUL:         38  USELESS:        117
L1D USEFUL LOAD PREFETCHES:         38 PREFETCH ISSUED TO LOWER LEVEL:      51376  ACCURACY: 0.0739645
L1D TIMELY PREFETCHES:         38 LATE PREFETCHES: 1 DROPPED PREFETCHES: 624
L1D PREFETCHES SAME FILL-ORIGIN LEVEL: 156 DIFFERENT FILL-ORIGIN LEVEL: 51220
L1D AVERAGE MISS LATENCY: 227.165 cycles
L1D RQ	ACCESS:   65409710	FORWARD:          0	MERGED:   22955513	TO_CACHE:   42448071
L1D WQ	ACCESS:    7402940	FORWARD:       6133	MERGED:     438939	TO_CACHE:    6964001
L1D PQ	ACCESS:      58151	FORWARD:          0	MERGED:        203	TO_CACHE:      57941

L1D UNIQUE REGIONS ACCESSED: 0
L1D REGIONS CONFLICTS: 0
L1D Cross Page Prefetch Requests: 12074
L1D Same Page Prefetch Requests: 51540
L1D ROI Sum of L1D PQ occupancy: 847676
L1D PREFETCHES PUSHED FROM L2C: 0
L1I TOTAL     ACCESS:   38674522  HIT:   38674522  MISS:          0  HIT %:        100  MISS %:          0   MPKI: 0
L1I LOAD      ACCESS:   38674522  HIT:   38674522  MISS:          0  HIT %:        100  MISS %:          0   MPKI: 0
L1I PREFETCH  REQUESTED:          0  ISSUED:          0  USEFUL:          0  USELESS:          0
L1I USEFUL LOAD PREFETCHES:          0 PREFETCH ISSUED TO LOWER LEVEL:          0  ACCURACY: -nan
L1I TIMELY PREFETCHES:          0 LATE PREFETCHES: 0 DROPPED PREFETCHES: 0
L1I PREFETCHES SAME FILL-ORIGIN LEVEL: 0 DIFFERENT FILL-ORIGIN LEVEL: 0
L1I AVERAGE MISS LATENCY: -nan cycles
L1I RQ	ACCESS:   56914692	FORWARD:          0	MERGED:   17472494	TO_CACHE:   39442198

BTB TOTAL     ACCESS:   43622021  HIT:   43605124  MISS:      16897  HIT %:    99.9613  MISS %:   0.038735   MPKI: 0.084485
BTB BRANCH_DIRECT_JUMP	ACCESS:    1883199  HIT:    1883196  MISS:          3
BTB BRANCH_INDIRECT	ACCESS:          0  HIT:          0  MISS:          0
BTB BRANCH_CONDITIONAL	ACCESS:   41381516  HIT:   41381502  MISS:         14
BTB BRANCH_DIRECT_CALL	ACCESS:     178651  HIT:     178650  MISS:          1
BTB BRANCH_INDIRECT_CALL	ACCESS:          0  HIT:          0  MISS:          0
BTB BRANCH_RETURN	ACCESS:     178655  HIT:     161776  MISS:      16879
BTB BRANCH_OTHER ACCESS:          0  HIT:          0  MISS:          0

L2C TOTAL     ACCESS:   30071178  HIT:   11138941  MISS:   18932237  HIT %:    37.0419  MISS %:    62.9581   MPKI: 94.6612
L2C LOAD      ACCESS:   23650226  HIT:    6339793  MISS:   17310433  HIT %:    26.8065  MISS %:    73.1935   MPKI: 86.5522
L2C DATA LOAD MPKI: 86.5522
L2C INSTRUCTION LOAD MPKI: 0
L2C RFO       ACCESS:     331875  HIT:      99912  MISS:     231963  HIT %:    30.1053  MISS %:    69.8947   MPKI: 1.15981
L2C PREFETCH  ACCESS:      49156  HIT:       9375  MISS:      39781  HIT %:    19.0719  MISS %:    80.9281   MPKI: 0.198905
L2C DATA PREFETCH MPKI: 0.198905
L2C INSTRUCTION PREFETCH MPKI: 0
L2C WRITEBACK ACCESS:    3422804  HIT:    3225611  MISS:     197193  HIT %:    94.2388  MISS %:    5.76115   MPKI: 0.985965
L2C LOAD TRANSLATION ACCESS:    2615258  HIT:    1462673  MISS:    1152585  HIT %:    55.9284  MISS %:    44.0716   MPKI: 5.76292
L2C TRANSLATION FROM L1D PREFETCHER ACCESS:       1859  HIT:       1577  MISS:        282  HIT %:    84.8306  MISS %:    15.1694   MPKI: 0.00141
L2C PREFETCH  REQUESTED:          0  ISSUED:          0  USEFUL:       6933  USELESS:      34051
L2C USEFUL LOAD PREFETCHES:       6933 PREFETCH ISSUED TO LOWER LEVEL:      40837  ACCURACY: 16.9773
L2C TIMELY PREFETCHES:       6933 LATE PREFETCHES: 147 DROPPED PREFETCHES: 0
L2C PREFETCHES SAME FILL-ORIGIN LEVEL: 40725 DIFFERENT FILL-ORIGIN LEVEL: 0
L2C AVERAGE MISS LATENCY: 285.937 cycles
L2C RQ	ACCESS:   27162272	FORWARD:          0	MERGED:          0	TO_CACHE:   27162065
L2C WQ	ACCESS:    3516130	FORWARD:        208	MERGED:          0	TO_CACHE:    3516130
L2C PQ	ACCESS:      51376	FORWARD:          0	MERGED:          2	TO_CACHE:      51373

L2C Instructions Evicting Data 0
L2C Translations Evicting Data 1057576
L2C Data Evicting Data 16940034
L2C Instructions Evicting Instructions 0
L2C Translations Evicting Instructions 0
L2C Data Evicting Instructions 0
L2C Instructions Evicting Translations 0
L2C Translations Evicting Translations 121536
L2C Data Evicting Translations 1033476
L2C Dense regions hint from L2: 0
PSCL5 TOTAL     ACCESS:    1867884  HIT:    1867884  MISS:          0  HIT %:        100  MISS %:          0   MPKI: 0
PSCL5 LOAD TRANSLATION ACCESS:    1866201  HIT:    1866201  MISS:          0  HIT %:        100  MISS %:          0   MPKI: 0
PSCL5 TRANSLATION FROM L1D PREFETCHER ACCESS:       1683  HIT:       1683  MISS:          0  HIT %:        100  MISS %:          0   MPKI: 0
PSCL5 PREFETCH  REQUESTED:          0  ISSUED:          0  USEFUL:          0  USELESS:          0
PSCL5 USEFUL LOAD PREFETCHES:          0 PREFETCH ISSUED TO LOWER LEVEL:          0  ACCURACY: -nan
PSCL5 TIMELY PREFETCHES:          0 LATE PREFETCHES: 0 DROPPED PREFETCHES: 0
PSCL5 PREFETCHES SAME FILL-ORIGIN LEVEL: 0 DIFFERENT FILL-ORIGIN LEVEL: 0

PSCL4 TOTAL     ACCESS:    1867884  HIT:    1867884  MISS:          0  HIT %:        100  MISS %:          0   MPKI: 0
PSCL4 LOAD TRANSLATION ACCESS:    1866201  HIT:    1866201  MISS:          0  HIT %:        100  MISS %:          0   MPKI: 0
PSCL4 TRANSLATION FROM L1D PREFETCHER ACCESS:       1683  HIT:       1683  MISS:          0  HIT %:        100  MISS %:          0   MPKI: 0
PSCL4 PREFETCH  REQUESTED:          0  ISSUED:          0  USEFUL:          0  USELESS:          0
PSCL4 USEFUL LOAD PREFETCHES:          0 PREFETCH ISSUED TO LOWER LEVEL:          0  ACCURACY: -nan
PSCL4 TIMELY PREFETCHES:          0 LATE PREFETCHES: 0 DROPPED PREFETCHES: 0
PSCL4 PREFETCHES SAME FILL-ORIGIN LEVEL: 0 DIFFERENT FILL-ORIGIN LEVEL: 0

PSCL3 TOTAL     ACCESS:    1867884  HIT:    1867884  MISS:          0  HIT %:        100  MISS %:          0   MPKI: 0
PSCL3 LOAD TRANSLATION ACCESS:    1866201  HIT:    1866201  MISS:          0  HIT %:        100  MISS %:          0   MPKI: 0
PSCL3 TRANSLATION FROM L1D PREFETCHER ACCESS:       1683  HIT:       1683  MISS:          0  HIT %:        100  MISS %:          0   MPKI: 0
PSCL3 PREFETCH  REQUESTED:          0  ISSUED:          0  USEFUL:          0  USELESS:          0
PSCL3 USEFUL LOAD PREFETCHES:          0 PREFETCH ISSUED TO LOWER LEVEL:          0  ACCURACY: -nan
PSCL3 TIMELY PREFETCHES:          0 LATE PREFETCHES: 0 DROPPED PREFETCHES: 0
PSCL3 PREFETCHES SAME FILL-ORIGIN LEVEL: 0 DIFFERENT FILL-ORIGIN LEVEL: 0

PSCL2 TOTAL     ACCESS:    1867789  HIT:    1118651  MISS:     749138  HIT %:    59.8917  MISS %:    40.1083   MPKI: 3.74569
PSCL2 LOAD TRANSLATION ACCESS:    1866282  HIT:    1117144  MISS:     749138  HIT %:    59.8593  MISS %:    40.1407   MPKI: 3.74569
PSCL2 TRANSLATION FROM L1D PREFETCHER ACCESS:       1507  HIT:       1507  MISS:          0  HIT %:        100  MISS %:          0   MPKI: 0
PSCL2 PREFETCH  REQUESTED:          0  ISSUED:          0  USEFUL:          0  USELESS:          0
PSCL2 USEFUL LOAD PREFETCHES:          0 PREFETCH ISSUED TO LOWER LEVEL:          0  ACCURACY: -nan
PSCL2 TIMELY PREFETCHES:          0 LATE PREFETCHES: 0 DROPPED PREFETCHES: 0
PSCL2 PREFETCHES SAME FILL-ORIGIN LEVEL: 0 DIFFERENT FILL-ORIGIN LEVEL: 0

LLC TOTAL     ACCESS:   21258373  HIT:    7482101  MISS:   13776272  HIT %:     35.196  MISS %:     64.804   MPKI: 68.8814
LLC LOAD      ACCESS:   17310273  HIT:    4586491  MISS:   12723782  HIT %:    26.4958  MISS %:    73.5042   MPKI: 63.6189
LLC RFO       ACCESS:     231963  HIT:      70745  MISS:     161218  HIT %:    30.4984  MISS %:    69.5016   MPKI: 0.80609
LLC PREFETCH  ACCESS:      39927  HIT:       1270  MISS:      38657  HIT %:     3.1808  MISS %:    96.8192   MPKI: 0.193285
LLC WRITEBACK ACCESS:    2523343  HIT:    2410242  MISS:     113101  HIT %:    95.5178  MISS %:    4.48219   MPKI: 0.565505
LLC LOAD TRANSLATION ACCESS:    1152585  HIT:     413265  MISS:     739320  HIT %:    35.8555  MISS %:    64.1445   MPKI: 3.6966
LLC TRANSLATION FROM L1D PREFETCHER ACCESS:        282  HIT:         88  MISS:        194  HIT %:    31.2057  MISS %:    68.7943   MPKI: 0.00097
LLC PREFETCH  REQUESTED:          0  ISSUED:          0  USEFUL:       3821  USELESS:     151487
LLC USEFUL LOAD PREFETCHES:       3821 PREFETCH ISSUED TO LOWER LEVEL:     154832  ACCURACY: 2.46784
LLC TIMELY PREFETCHES:       3821 LATE PREFETCHES: 0 DROPPED PREFETCHES: 0
LLC PREFETCHES SAME FILL-ORIGIN LEVEL: 0 DIFFERENT FILL-ORIGIN LEVEL: 0
LLC AVERAGE MISS LATENCY: 1406.22 cycles
LLC RQ	ACCESS:   76006293	FORWARD:          0	MERGED:          0	TO_CACHE:   76006254
LLC WQ	ACCESS:   10332531	FORWARD:         39	MERGED:          0	TO_CACHE:   10332531
LLC PQ	ACCESS:     160359	FORWARD:          0	MERGED:          0	TO_CACHE:     160359

LLC Dense regions hint to LLC: 0

RAW hits: 1636192
Loads Generated: 65725133
Loads sent to L1D: 64088941
Stores Generated: 7235473
Stores sent to L1D: 7235473
Major fault: 0 Minor fault: 138279
Allocated PAGES: 551648

CPU 2 cumulative IPC: 0.0674299 instructions: 200000002 cycles: 2966041318
ITLB TOTAL     ACCESS:   35763561  HIT:   35763561  MISS:          0  HIT %:        100  MISS %:          0   MPKI: 0
ITLB LOAD TRANSLATION ACCESS:   35763561  HIT:   35763561  MISS:          0  HIT %:        100  MISS %:          0   MPKI: 0
ITLB PREFETCH  REQUESTED:          0  ISSUED:          0  USEFUL:          0  USELESS:          0
ITLB USEFUL LOAD PREFETCHES:          0 PREFETCH ISSUED TO LOWER LEVEL:          0  ACCURACY: -nan
ITLB TIMELY PREFETCHES:          0 LATE PREFETCHES: 0 DROPPED PREFETCHES: 0
ITLB PREFETCHES SAME FILL-ORIGIN LEVEL: 0 DIFFERENT FILL-ORIGIN LEVEL: 0
ITLB AVERAGE MISS LATENCY: -nan cycles
ITLB RQ	ACCESS:   39491531	FORWARD:          0	MERGED:    2976122	TO_CACHE:   36515409

DTLB TOTAL     ACCESS:   43004126  HIT:   23171034  MISS:   19833092  HIT %:     53.881  MISS %:     46.119   MPKI: 99.1655
DTLB LOAD TRANSLATION ACCESS:   43004126  HIT:   23171034  MISS:   19833092  HIT %:     53.881  MISS %:     46.119   MPKI: 99.1655
DTLB PREFETCH  REQUESTED:          0  ISSUED:          0  USEFUL:          0  USELESS:          0
DTLB USEFUL LOAD PREFETCHES:          0 PREFETCH ISSUED TO LOWER LEVEL:          0  ACCURACY: -nan
DTLB TIMELY PREFETCHES:          0 LATE PREFETCHES: 0 DROPPED PREFETCHES: 0
DTLB PREFETCHES SAME FILL-ORIGIN LEVEL: 0 DIFFERENT FILL-ORIGIN LEVEL: 0
DTLB AVERAGE MISS LATENCY: 27.1799 cycles
DTLB RQ	ACCESS:   49469431	FORWARD:          0	MERGED:    5458942	TO_CACHE:   44010489

STLB TOTAL     ACCESS:   19866986  HIT:   17999403  MISS:    1867583  HIT %:    90.5996  MISS %:    9.40043   MPKI: 9.33791
STLB LOAD TRANSLATION ACCESS:   19833092  HIT:   17966764  MISS:    1866328  HIT %:    90.5898  MISS %:    9.41017   MPKI: 9.33164
STLB TRANSLATION FROM L1D PREFETCHER ACCESS:      33894  HIT:      32639  MISS:       1255  HIT %:    96.2973  MISS %:    3.70272   MPKI: 0.006275
STLB PREFETCH  REQUESTED:          0  ISSUED:          0  USEFUL:        996  USELESS:        294
STLB USEFUL LOAD PREFETCHES:        996 PREFETCH ISSUED TO LOWER LEVEL:          0  ACCURACY: inf
STLB TIMELY PREFETCHES:        996 LATE PREFETCHES: 6 DROPPED PREFETCHES: 475
STLB PREFETCHES SAME FILL-ORIGIN LEVEL: 0 DIFFERENT FILL-ORIGIN LEVEL: 0
STLB AVERAGE MISS LATENCY: 190.925 cycles
STLB RQ	ACCESS:   20299550	FORWARD:          0	MERGED:      21962	TO_CACHE:   20277588

STLB Hit, L1D data hit: 0
STLB Hit, L2C data hit: 0
STLB Hit, LLC data hit: 0
STLB Hit, LLC data miss: 0
STLB STLB hints to L2: 0
L1D TOTAL     ACCESS:   48289338  HIT:   24304399  MISS:   23984939  HIT %:    50.3308  MISS %:    49.6692   MPKI: 119.925
L1D LOAD      ACCESS:   41505040  HIT:   17852064  MISS:   23652976  HIT %:    43.0118  MISS %:    56.9882   MPKI: 118.265
L1D RFO       ACCESS:    6778122  HIT:    6446290  MISS:     331832  HIT %:    95.1044  MISS %:    4.89563   MPKI: 1.65916
L1D PREFETCH  ACCESS:       6176  HIT:       6045  MISS:        131  HIT %:    97.8789  MISS %:    2.12111   MPKI: 0.000655
L1D PREFETCH  REQUESTED:     114358  ISSUED:     114358  USEFUL:         30  USELESS:        101
L1D USEFUL LOAD PREFETCHES:         30 PREFETCH ISSUED TO LOWER LEVEL:      50185  ACCURACY: 0.0597788
L1D TIMELY PREFETCHES:         30 LATE PREFETCHES: 0 DROPPED PREFETCHES: 622
L1D PREFETCHES SAME FILL-ORIGIN LEVEL: 131 DIFFERENT FILL-ORIGIN LEVEL: 50054
L1D AVERAGE MISS LATENCY: 227.162 cycles
L1D RQ	ACCESS:   65486795	FORWARD:          0	MERGED:   22980640	TO_CACHE:   42500064
L1D WQ	ACCESS:    7408806	FORWARD:       6097	MERGED:     439439	TO_CACHE:    6969367
L1D PQ	ACCESS:      57330	FORWARD:          0	MERGED:        296	TO_CACHE:      57028

L1D UNIQUE REGIONS ACCESSED: 0
L1D REGIONS CONFLICTS: 0
L1D Cross Page Prefetch Requests: 12374
L1D Same Page Prefetch Requests: 50269
L1D ROI Sum of L1D PQ occupancy: 816090
L1D PREFETCHES PUSHED FROM L2C: 0
L1I TOTAL     ACCESS:   38674546  HIT:   38674546  MISS:          0  HIT %:        100  MISS %:          0   MPKI: 0
L1I LOAD      ACCESS:   38674546  HIT:   38674546  MISS:          0  HIT %:        100  MISS %:          0   MPKI: 0
L1I PREFETCH  REQUESTED:          0  ISSUED:          0  USEFUL:          0  USELESS:          0
L1I USEFUL LOAD PREFETCHES:          0 PREFETCH ISSUED TO LOWER LEVEL:          0  ACCURACY: -nan
L1I TIMELY PREFETCHES:          0 LATE PREFETCHES: 0 DROPPED PREFETCHES: 0
L1I PREFETCHES SAME FILL-ORIGIN LEVEL: 0 DIFFERENT FILL-ORIGIN LEVEL: 0
L1I AVERAGE MISS LATENCY: -nan cycles
L1I RQ	ACCESS:   56980618	FORWARD:          0	MERGED:   17489087	TO_CACHE:   39491531

BTB TOTAL     ACCESS:   43622194  HIT:   43605301  MISS:      16893  HIT %:    99.9613  MISS %:  0.0387257   MPKI: 0.084465
BTB BRANCH_DIRECT_JUMP	ACCESS:    1882764  HIT:    1882759  MISS:          5
BTB BRANCH_INDIRECT	ACCESS:          0  HIT:          0  MISS:          0
BTB BRANCH_CONDITIONAL	ACCESS:   41382336  HIT:   41382318  MISS:         18
BTB BRANCH_DIRECT_CALL	ACCESS:     178547  HIT:     178546  MISS:          1
BTB BRANCH_INDIRECT_CALL	ACCESS:          0  HIT:          0  MISS:          0
BTB BRANCH_RETURN	ACCESS:     178547  HIT:     161678  MISS:      16869
BTB BRANCH_OTHER ACCESS:          0  HIT:          0  MISS:          0

L2C TOTAL     ACCESS:   30072372  HIT:   11166506  MISS:   18905866  HIT %:    37.1321  MISS %:    62.8679   MPKI: 94.5293
L2C LOAD      ACCESS:   23652777  HIT:    6350735  MISS:   17302042  HIT %:    26.8498  MISS %:    73.1502   MPKI: 86.5102
L2C DATA LOAD MPKI: 86.5102
L2C INSTRUCTION LOAD MPKI: 0
L2C RFO       ACCESS:     331832  HIT:     101517  MISS:     230315  HIT %:    30.5929  MISS %:    69.4071   MPKI: 1.15157
L2C PREFETCH  ACCESS:      48096  HIT:       9803  MISS:      38293  HIT %:    20.3822  MISS %:    79.6178   MPKI: 0.191465
L2C DATA PREFETCH MPKI: 0.191465
L2C INSTRUCTION PREFETCH MPKI: 0
L2C WRITEBACK ACCESS:    3422280  HIT:    3229797  MISS:     192483  HIT %:    94.3756  MISS %:    5.62441   MPKI: 0.962415
L2C LOAD TRANSLATION ACCESS:    2615511  HIT:    1473008  MISS:    1142503  HIT %:    56.3182  MISS %:    43.6818   MPKI: 5.71251
L2C TRANSLATION FROM L1D PREFETCHER ACCESS:       1876  HIT:       1646  MISS:        230  HIT %:    87.7399  MISS %:    12.2601   MPKI: 0.00115
L2C PREFETCH  REQUESTED:          0  ISSUED:          0  USEFUL:       6681  USELESS:      32688
L2C USEFUL LOAD PREFETCHES:       6681 PREFETCH ISSUED TO LOWER LEVEL:      39286  ACCURACY: 17.0061
L2C TIMELY PREFETCHES:       6681 LATE PREFETCHES: 150 DROPPED PREFETCHES: 0
L2C PREFETCHES SAME FILL-ORIGIN LEVEL: 39188 DIFFERENT FILL-ORIGIN LEVEL: 0
L2C AVERAGE MISS LATENCY: 286.292 cycles
L2C RQ	ACCESS:   27194840	FORWARD:          0	MERGED:          0	TO_CACHE:   27194637
L2C WQ	ACCESS:    3517318	FORWARD:        204	MERGED:          0	TO_CACHE:    3517318
L2C PQ	ACCESS:      50185	FORWARD:          0	MERGED:          1	TO_CACHE:      50183

L2C Instructions Evicting Data 0
L2C Translations Evicting Data 1053427
L2C Data Evicting Data 16950747
L2C Instructions Evicting Instructions 0
L2C Translations Evicting Instructions 0
L2C Data Evicting Instructions 0
L2C Instructions Evicting Translations 0
L2C Translations Evicting Translations 115829
L2C Data Evicting Translations 1030151
L2C Dense regions hint from L2: 0
PSCL5 TOTAL     ACCESS:    1868048  HIT:    1868048  MISS:          0  HIT %:        100  MISS %:          0   MPKI: 0
PSCL5 LOAD TRANSLATION ACCESS:    1866322  HIT:    1866322  MISS:          0  HIT %:        100  MISS %:          0   MPKI: 0
PSCL5 TRANSLATION FROM L1D PREFETCHER ACCESS:       1726  HIT:       1726  MISS:          0  HIT %:        100  MISS %:          0   MPKI: 0
PSCL5 PREFETCH  REQUESTED:          0  ISSUED:          0  USEFUL:          0  USELESS:          0
PSCL5 USEFUL LOAD PREFETCHES:          0 PREFETCH ISSUED TO LOWER LEVEL:          0  ACCURACY: -nan
PSCL5 TIMELY PREFETCHES:          0 LATE PREFETCHES: 0 DROPPED PREFETCHES: 0
PSCL5 PREFETCHES SAME FILL-ORIGIN LEVEL: 0 DIFFERENT FILL-ORIGIN LEVEL: 0

PSCL4 TOTAL     ACCESS:    1868048  HIT:    1868048  MISS:          0  HIT %:        100  MISS %:          0   MPKI: 0
PSCL4 LOAD TRANSLATION ACCESS:    1866322  HIT:    1866322  MISS:          0  HIT %:        100  MISS %:          0   MPKI: 0
PSCL4 TRANSLATION FROM L1D PREFETCHER ACCESS:       1726  HIT:       1726  MISS:          0  HIT %:        100  MISS %:          0   MPKI: 0
PSCL4 PREFETCH  REQUESTED:          0  ISSUED:          0  USEFUL:          0  USELESS:          0
PSCL4 USEFUL LOAD PREFETCHES:          0 PREFETCH ISSUED TO LOWER LEVEL:          0  ACCURACY: -nan
PSCL4 TIMELY PREFETCHES:          0 LATE PREFETCHES: 0 DROPPED PREFETCHES: 0
PSCL4 PREFETCHES SAME FILL-ORIGIN LEVEL: 0 DIFFERENT FILL-ORIGIN LEVEL: 0

PSCL3 TOTAL     ACCESS:    1868048  HIT:    1868048  MISS:          0  HIT %:        100  MISS %:          0   MPKI: 0
PSCL3 LOAD TRANSLATION ACCESS:    1866322  HIT:    1866322  MISS:          0  HIT %:        100  MISS %:          0   MPKI: 0
PSCL3 TRANSLATION FROM L1D PREFETCHER ACCESS:       1726  HIT:       1726  MISS:          0  HIT %:        100  MISS %:          0   MPKI: 0
PSCL3 PREFETCH  REQUESTED:          0  ISSUED:          0  USEFUL:          0  USELESS:          0
PSCL3 USEFUL LOAD PREFETCHES:          0 PREFETCH ISSUED TO LOWER LEVEL:          0  ACCURACY: -nan
PSCL3 TIMELY PREFETCHES:          0 LATE PREFETCHES: 0 DROPPED PREFETCHES: 0
PSCL3 PREFETCHES SAME FILL-ORIGIN LEVEL: 0 DIFFERENT FILL-ORIGIN LEVEL: 0

PSCL2 TOTAL     ACCESS:    1867978  HIT:    1118709  MISS:     749269  HIT %:    59.8888  MISS %:    40.1112   MPKI: 3.74634
PSCL2 LOAD TRANSLATION ACCESS:    1866402  HIT:    1117133  MISS:     749269  HIT %:    59.8549  MISS %:    40.1451   MPKI: 3.74634
PSCL2 TRANSLATION FROM L1D PREFETCHER ACCESS:       1576  HIT:       1576  MISS:          0  HIT %:        100  MISS %:          0   MPKI: 0
PSCL2 PREFETCH  REQUESTED:          0  ISSUED:          0  USEFUL:          0  USELESS:          0
PSCL2 USEFUL LOAD PREFETCHES:          0 PREFETCH ISSUED TO LOWER LEVEL:          0  ACCURACY: -nan
PSCL2 TIMELY PREFETCHES:          0 LATE PREFETCHES: 0 DROPPED PREFETCHES: 0
PSCL2 PREFETCHES SAME FILL-ORIGIN LEVEL: 0 DIFFERENT FILL-ORIGIN LEVEL: 0

LLC TOTAL     ACCESS:   21234073  HIT:    7469090  MISS:   13764983  HIT %:     35.175  MISS %:     64.825   MPKI: 68.8249
LLC LOAD      ACCESS:   17301886  HIT:    4589201  MISS:   12712685  HIT %:    26.5243  MISS %:    73.4757   MPKI: 63.5634
LLC RFO       ACCESS:     230315  HIT:      68970  MISS:     161345  HIT %:    29.9459  MISS %:    70.0541   MPKI: 0.806725
LLC PREFETCH  ACCESS:      38442  HIT:       1225  MISS:      37217  HIT %:    3.18662  MISS %:    96.8134   MPKI: 0.186085
LLC WRITEBACK ACCESS:    2520697  HIT:    2405862  MISS:     114835  HIT %:    95.4443  MISS %:    4.55568   MPKI: 0.574175
LLC LOAD TRANSLATION ACCESS:    1142503  HIT:     403766  MISS:     738737  HIT %:    35.3405  MISS %:    64.6595   MPKI: 3.69368
LLC TRANSLATION FROM L1D PREFETCHER ACCESS:        230  HIT:         66  MISS:        164  HIT %:    28.6957  MISS %:    71.3043   MPKI: 0.00082
LLC PREFETCH  REQUESTED:          0  ISSUED:          0  USEFUL:       3821  USELESS:     151487
LLC USEFUL LOAD PREFETCHES:       3821 PREFETCH ISSUED TO LOWER LEVEL:     154832  ACCURACY: 2.46784
LLC TIMELY PREFETCHES:       3821 LATE PREFETCHES: 0 DROPPED PREFETCHES: 0
LLC PREFETCHES SAME FILL-ORIGIN LEVEL: 0 DIFFERENT FILL-ORIGIN LEVEL: 0
LLC AVERAGE MISS LATENCY: 1407.38 cycles
LLC RQ	ACCESS:   76006293	FORWARD:          0	MERGED:          0	TO_CACHE:   76006254
LLC WQ	ACCESS:   10332531	FORWARD:         39	MERGED:          0	TO_CACHE:   10332531
LLC PQ	ACCESS:     160359	FORWARD:          0	MERGED:          0	TO_CACHE:     160359

LLC Dense regions hint to LLC: 0

RAW hits: 1636329
Loads Generated: 65725182
Loads sent to L1D: 64088853
Stores Generated: 7232803
Stores sent to L1D: 7232803
Major fault: 0 Minor fault: 138349
Allocated PAGES: 551648

CPU 3 cumulative IPC: 0.065833 instructions: 200000000 cycles: 3037991960
ITLB TOTAL     ACCESS:   35763089  HIT:   35763089  MISS:          0  HIT %:        100  MISS %:          0   MPKI: 0
ITLB LOAD TRANSLATION ACCESS:   35763089  HIT:   35763089  MISS:          0  HIT %:        100  MISS %:          0   MPKI: 0
ITLB PREFETCH  REQUESTED:          0  ISSUED:          0  USEFUL:          0  USELESS:          0
ITLB USEFUL LOAD PREFETCHES:          0 PREFETCH ISSUED TO LOWER LEVEL:          0  ACCURACY: -nan
ITLB TIMELY PREFETCHES:          0 LATE PREFETCHES: 0 DROPPED PREFETCHES: 0
ITLB PREFETCHES SAME FILL-ORIGIN LEVEL: 0 DIFFERENT FILL-ORIGIN LEVEL: 0
ITLB AVERAGE MISS LATENCY: -nan cycles
ITLB RQ	ACCESS:   38674195	FORWARD:          0	MERGED:    2911106	TO_CACHE:   35763089

DTLB TOTAL     ACCESS:   43004960  HIT:   23169621  MISS:   19835339  HIT %:    53.8766  MISS %:    46.1234   MPKI: 99.1767
DTLB LOAD TRANSLATION ACCESS:   43004960  HIT:   23169621  MISS:   19835339  HIT %:    53.8766  MISS %:    46.1234   MPKI: 99.1767
DTLB PREFETCH  REQUESTED:          0  ISSUED:          0  USEFUL:          0  USELESS:          0
DTLB USEFUL LOAD PREFETCHES:          0 PREFETCH ISSUED TO LOWER LEVEL:          0  ACCURACY: -nan
DTLB TIMELY PREFETCHES:          0 LATE PREFETCHES: 0 DROPPED PREFETCHES: 0
DTLB PREFETCHES SAME FILL-ORIGIN LEVEL: 0 DIFFERENT FILL-ORIGIN LEVEL: 0
DTLB AVERAGE MISS LATENCY: 26.2169 cycles
DTLB RQ	ACCESS:   48405575	FORWARD:          0	MERGED:    5340223	TO_CACHE:   43065352

STLB TOTAL     ACCESS:   19871428  HIT:   18003793  MISS:    1867635  HIT %:    90.6014  MISS %:    9.39859   MPKI: 9.33817
STLB LOAD TRANSLATION ACCESS:   19835339  HIT:   17968960  MISS:    1866379  HIT %:    90.5906  MISS %:    9.40936   MPKI: 9.33189
STLB TRANSLATION FROM L1D PREFETCHER ACCESS:      36089  HIT:      34833  MISS:       1256  HIT %:    96.5197  MISS %:    3.48028   MPKI: 0.00628
STLB PREFETCH  REQUESTED:          0  ISSUED:          0  USEFUL:        983  USELESS:        273
STLB USEFUL LOAD PREFETCHES:        983 PREFETCH ISSUED TO LOWER LEVEL:          0  ACCURACY: inf
STLB TIMELY PREFETCHES:        983 LATE PREFETCHES: 9 DROPPED PREFETCHES: 481
STLB PREFETCHES SAME FILL-ORIGIN LEVEL: 0 DIFFERENT FILL-ORIGIN LEVEL: 0
STLB AVERAGE MISS LATENCY: 182.697 cycles
STLB RQ	ACCESS:   19893056	FORWARD:          0	MERGED:      21118	TO_CACHE:   19871938

STLB Hit, L1D data hit: 0
STLB Hit, L2C data hit: 0
STLB Hit, LLC data hit: 0
STLB Hit, LLC data miss: 0
STLB STLB hints to L2: 0
L1D TOTAL     ACCESS:   48287917  HIT:   24301451  MISS:   23986466  HIT %:    50.3262  MISS %:    49.6738   MPKI: 119.932
L1D LOAD      ACCESS:   41504781  HIT:   17850269  MISS:   23654512  HIT %:    43.0077  MISS %:    56.9923   MPKI: 118.273
L1D RFO       ACCESS:    6776334  HIT:    6444550  MISS:     331784  HIT %:    95.1038  MISS %:    4.89622   MPKI: 1.65892
L1D PREFETCH  ACCESS:       6802  HIT:       6632  MISS:        170  HIT %:    97.5007  MISS %:    2.49926   MPKI: 0.00085
L1D PREFETCH  REQUESTED:     115731  ISSUED:     115730  USEFUL:         41  USELESS:        129
L1D USEFUL LOAD PREFETCHES:         41 PREFETCH ISSUED TO LOWER LEVEL:      50391  ACCURACY: 0.0813637
L1D TIMELY PREFETCHES:         41 LATE PREFETCHES: 0 DROPPED PREFETCHES: 609
L1D PREFETCHES SAME FILL-ORIGIN LEVEL: 170 DIFFERENT FILL-ORIGIN LEVEL: 50221
L1D AVERAGE MISS LATENCY: 227.876 cycles
L1D RQ	ACCESS:   64088801	FORWARD:          0	MERGED:   22477736	TO_CACHE:   41605085
L1D WQ	ACCESS:    7230990	FORWARD:       5993	MERGED:     430500	TO_CACHE:    6800490
L1D PQ	ACCESS:      58013	FORWARD:          0	MERGED:        283	TO_CACHE:      57717

L1D UNIQUE REGIONS ACCESSED: 0
L1D REGIONS CONFLICTS: 0
L1D Cross Page Prefetch Requests: 13047
L1D Same Page Prefetch Requests: 50444
L1D ROI Sum of L1D PQ occupancy: 818668
L1D PREFETCHES PUSHED FROM L2C: 0
L1I TOTAL     ACCESS:   38674195  HIT:   38674195  MISS:          0  HIT %:        100  MISS %:          0   MPKI: 0
L1I LOAD      ACCESS:   38674195  HIT:   38674195  MISS:          0  HIT %:        100  MISS %:          0   MPKI: 0
L1I PREFETCH  REQUESTED:          0  ISSUED:          0  USEFUL:          0  USELESS:          0
L1I USEFUL LOAD PREFETCHES:          0 PREFETCH ISSUED TO LOWER LEVEL:          0  ACCURACY: -nan
L1I TIMELY PREFETCHES:          0 LATE PREFETCHES: 0 DROPPED PREFETCHES: 0
L1I PREFETCHES SAME FILL-ORIGIN LEVEL: 0 DIFFERENT FILL-ORIGIN LEVEL: 0
L1I AVERAGE MISS LATENCY: -nan cycles
L1I RQ	ACCESS:   55771130	FORWARD:          0	MERGED:   17096935	TO_CACHE:   38674195

BTB TOTAL     ACCESS:   43620542  HIT:   43603597  MISS:      16945  HIT %:    99.9612  MISS %:  0.0388464   MPKI: 0.084725
BTB BRANCH_DIRECT_JUMP	ACCESS:    1882466  HIT:    1882448  MISS:         18
BTB BRANCH_INDIRECT	ACCESS:          0  HIT:          0  MISS:          0
BTB BRANCH_CONDITIONAL	ACCESS:   41381112  HIT:   41381057  MISS:         55
BTB BRANCH_DIRECT_CALL	ACCESS:     178482  HIT:     178476  MISS:          6
BTB BRANCH_INDIRECT_CALL	ACCESS:          0  HIT:          0  MISS:          0
BTB BRANCH_RETURN	ACCESS:     178482  HIT:     161616  MISS:      16866
BTB BRANCH_OTHER ACCESS:          0  HIT:          0  MISS:          0

L2C TOTAL     ACCESS:   30074650  HIT:   11133215  MISS:   18941435  HIT %:    37.0186  MISS %:    62.9814   MPKI: 94.7072
L2C LOAD      ACCESS:   23654306  HIT:    6329391  MISS:   17324915  HIT %:    26.7579  MISS %:    73.2421   MPKI: 86.6246
L2C DATA LOAD MPKI: 86.6246
L2C INSTRUCTION LOAD MPKI: 0
L2C RFO       ACCESS:     331782  HIT:      99897  MISS:     231885  HIT %:    30.1092  MISS %:    69.8908   MPKI: 1.15942
L2C PREFETCH  ACCESS:      49266  HIT:      10020  MISS:      39246  HIT %:    20.3386  MISS %:    79.6614   MPKI: 0.19623
L2C DATA PREFETCH MPKI: 0.19623
L2C INSTRUCTION PREFETCH MPKI: 0
L2C WRITEBACK ACCESS:    3421801  HIT:    3223722  MISS:     198079  HIT %:    94.2113  MISS %:    5.78874   MPKI: 0.990395
L2C LOAD TRANSLATION ACCESS:    2615588  HIT:    1468520  MISS:    1147068  HIT %:    56.1449  MISS %:    43.8551   MPKI: 5.73534
L2C TRANSLATION FROM L1D PREFETCHER ACCESS:       1907  HIT:       1665  MISS:        242  HIT %:    87.3099  MISS %:    12.6901   MPKI: 0.00121
L2C PREFETCH  REQUESTED:          0  ISSUED:          0  USEFUL:       6622  USELESS:      32866
L2C USEFUL LOAD PREFETCHES:       6622 PREFETCH ISSUED TO LOWER LEVEL:      39406  ACCURACY: 16.8045
L2C TIMELY PREFETCHES:       6622 LATE PREFETCHES: 160 DROPPED PREFETCHES: 0
L2C PREFETCHES SAME FILL-ORIGIN LEVEL: 39273 DIFFERENT FILL-ORIGIN LEVEL: 0
L2C AVERAGE MISS LATENCY: 286.343 cycles
L2C RQ	ACCESS:   26603789	FORWARD:          0	MERGED:          0	TO_CACHE:   26603583
L2C WQ	ACCESS:    3421801	FORWARD:        206	MERGED:          0	TO_CACHE:    3421801
L2C PQ	ACCESS:      50391	FORWARD:          0	MERGED:          1	TO_CACHE:      50390

L2C Instructions Evicting Data 0
L2C Translations Evicting Data 1035146
L2C Data Evicting Data 16584000
L2C Instructions Evicting Instructions 0
L2C Translations Evicting Instructions 0
L2C Data Evicting Instructions 0
L2C Instructions Evicting Translations 0
L2C Translations Evicting Translations 112164
L2C Data Evicting Translations 1012046
L2C Dense regions hint from L2: 0
PSCL5 TOTAL     ACCESS:    1868116  HIT:    1868116  MISS:          0  HIT %:        100  MISS %:          0   MPKI: 0
PSCL5 LOAD TRANSLATION ACCESS:    1866370  HIT:    1866370  MISS:          0  HIT %:        100  MISS %:          0   MPKI: 0
PSCL5 TRANSLATION FROM L1D PREFETCHER ACCESS:       1746  HIT:       1746  MISS:          0  HIT %:        100  MISS %:          0   MPKI: 0
PSCL5 PREFETCH  REQUESTED:          0  ISSUED:          0  USEFUL:          0  USELESS:          0
PSCL5 USEFUL LOAD PREFETCHES:          0 PREFETCH ISSUED TO LOWER LEVEL:          0  ACCURACY: -nan
PSCL5 TIMELY PREFETCHES:          0 LATE PREFETCHES: 0 DROPPED PREFETCHES: 0
PSCL5 PREFETCHES SAME FILL-ORIGIN LEVEL: 0 DIFFERENT FILL-ORIGIN LEVEL: 0

PSCL4 TOTAL     ACCESS:    1868116  HIT:    1868116  MISS:          0  HIT %:        100  MISS %:          0   MPKI: 0
PSCL4 LOAD TRANSLATION ACCESS:    1866370  HIT:    1866370  MISS:          0  HIT %:        100  MISS %:          0   MPKI: 0
PSCL4 TRANSLATION FROM L1D PREFETCHER ACCESS:       1746  HIT:       1746  MISS:          0  HIT %:        100  MISS %:          0   MPKI: 0
PSCL4 PREFETCH  REQUESTED:          0  ISSUED:          0  USEFUL:          0  USELESS:          0
PSCL4 USEFUL LOAD PREFETCHES:          0 PREFETCH ISSUED TO LOWER LEVEL:          0  ACCURACY: -nan
PSCL4 TIMELY PREFETCHES:          0 LATE PREFETCHES: 0 DROPPED PREFETCHES: 0
PSCL4 PREFETCHES SAME FILL-ORIGIN LEVEL: 0 DIFFERENT FILL-ORIGIN LEVEL: 0

PSCL3 TOTAL     ACCESS:    1868116  HIT:    1868116  MISS:          0  HIT %:        100  MISS %:          0   MPKI: 0
PSCL3 LOAD TRANSLATION ACCESS:    1866370  HIT:    1866370  MISS:          0  HIT %:        100  MISS %:          0   MPKI: 0
PSCL3 TRANSLATION FROM L1D PREFETCHER ACCESS:       1746  HIT:       1746  MISS:          0  HIT %:        100  MISS %:          0   MPKI: 0
PSCL3 PREFETCH  REQUESTED:          0  ISSUED:          0  USEFUL:          0  USELESS:          0
PSCL3 USEFUL LOAD PREFETCHES:          0 PREFETCH ISSUED TO LOWER LEVEL:          0  ACCURACY: -nan
PSCL3 TIMELY PREFETCHES:          0 LATE PREFETCHES: 0 DROPPED PREFETCHES: 0
PSCL3 PREFETCHES SAME FILL-ORIGIN LEVEL: 0 DIFFERENT FILL-ORIGIN LEVEL: 0

PSCL2 TOTAL     ACCESS:    1868023  HIT:    1118737  MISS:     749286  HIT %:    59.8888  MISS %:    40.1112   MPKI: 3.74643
PSCL2 LOAD TRANSLATION ACCESS:    1866438  HIT:    1117152  MISS:     749286  HIT %:    59.8548  MISS %:    40.1452   MPKI: 3.74643
PSCL2 TRANSLATION FROM L1D PREFETCHER ACCESS:       1585  HIT:       1585  MISS:          0  HIT %:        100  MISS %:          0   MPKI: 0
PSCL2 PREFETCH  REQUESTED:          0  ISSUED:          0  USEFUL:          0  USELESS:          0
PSCL2 USEFUL LOAD PREFETCHES:          0 PREFETCH ISSUED TO LOWER LEVEL:          0  ACCURACY: -nan
PSCL2 TIMELY PREFETCHES:          0 LATE PREFETCHES: 0 DROPPED PREFETCHES: 0
PSCL2 PREFETCHES SAME FILL-ORIGIN LEVEL: 0 DIFFERENT FILL-ORIGIN LEVEL: 0

LLC TOTAL     ACCESS:   21269036  HIT:    7433990  MISS:   13835046  HIT %:    34.9522  MISS %:    65.0478   MPKI: 69.1752
LLC LOAD      ACCESS:   17324749  HIT:    4539915  MISS:   12784834  HIT %:    26.2048  MISS %:    73.7952   MPKI: 63.9242
LLC RFO       ACCESS:     231885  HIT:      72088  MISS:     159797  HIT %:    31.0878  MISS %:    68.9122   MPKI: 0.798985
LLC PREFETCH  ACCESS:      39406  HIT:       1448  MISS:      37958  HIT %:    3.67457  MISS %:    96.3254   MPKI: 0.18979
LLC WRITEBACK ACCESS:    2525686  HIT:    2412930  MISS:     112756  HIT %:    95.5356  MISS %:    4.46437   MPKI: 0.56378
LLC LOAD TRANSLATION ACCESS:    1147068  HIT:     407544  MISS:     739524  HIT %:    35.5292  MISS %:    64.4708   MPKI: 3.69762
LLC TRANSLATION FROM L1D PREFETCHER ACCESS:        242  HIT:         65  MISS:        177  HIT %:    26.8595  MISS %:    73.1405   MPKI: 0.000885
LLC PREFETCH  REQUESTED:          0  ISSUED:          0  USEFUL:       3821  USELESS:     151487
LLC USEFUL LOAD PREFETCHES:       3821 PREFETCH ISSUED TO LOWER LEVEL:     154832  ACCURACY: 2.46784
LLC TIMELY PREFETCHES:       3821 LATE PREFETCHES: 0 DROPPED PREFETCHES: 0
LLC PREFETCHES SAME FILL-ORIGIN LEVEL: 0 DIFFERENT FILL-ORIGIN LEVEL: 0
LLC AVERAGE MISS LATENCY: 1400.25 cycles
LLC RQ	ACCESS:   76006293	FORWARD:          0	MERGED:          0	TO_CACHE:   76006254
LLC WQ	ACCESS:   10332531	FORWARD:         39	MERGED:          0	TO_CACHE:   10332531
LLC PQ	ACCESS:     160359	FORWARD:          0	MERGED:          0	TO_CACHE:     160359

LLC Dense regions hint to LLC: 0

RAW hits: 1636193
Loads Generated: 65724997
Loads sent to L1D: 64088801
Stores Generated: 7230990
Stores sent to L1D: 7230990
Major fault: 0 Minor fault: 136671
Allocated PAGES: 551648

DRAM Statistics
 CHANNEL 0
 RQ ROW_BUFFER_HIT:     389397  ROW_BUFFER_MISS:   55254641
 DBUS_CONGESTED:         38
 WQ ROW_BUFFER_HIT:     424643  ROW_BUFFER_MISS:    9162077  FULL:          0

 AVG_CONGESTED_CYCLE: 5
 All warmup complete: 5
Channel 0 Bank busy for read cycles: 0
Channel 0 Bank busy for write cycles: 0
Channel 0
Rank 0
0banks busy for read cycles: 1376557
0banks busy for write cycles: 2208
1banks busy for read cycles: 220834828
1banks busy for write cycles: 1673684
2banks busy for read cycles: 682062580
2banks busy for write cycles: 3498576
3banks busy for read cycles: 845611047
3banks busy for write cycles: 12584706
4banks busy for read cycles: 559893639
4banks busy for write cycles: 25271746
5banks busy for read cycles: 266613386
5banks busy for write cycles: 36899873
6banks busy for read cycles: 102893476
6banks busy for write cycles: 51108598
7banks busy for read cycles: 26396894
7banks busy for write cycles: 82292502
8banks busy for read cycles: 3247982
8banks busy for write cycles: 115729679

CPU 0 Branch Prediction Accuracy: 94.0166% MPKI: 14.3919 Average ROB Occupancy at Mispredict: 45.5883
Branch types
NOT_BRANCH: 154874449 75.8961%
BRANCH_DIRECT_JUMP: 1921493 0.941627%
BRANCH_INDIRECT: 0 0%
BRANCH_CONDITIONAL: 46901049 22.9838%
BRANCH_DIRECT_CALL: 182015 0.0891963%
BRANCH_INDIRECT_CALL: 0 0%
BRANCH_RETURN: 182015 0.0891963%
BRANCH_OTHER: 0 0%


CPU 1 Branch Prediction Accuracy: 94.0149% MPKI: 14.4084 Average ROB Occupancy at Mispredict: 45.5755
Branch types
NOT_BRANCH: 154916726 75.8963%
BRANCH_DIRECT_JUMP: 1921236 0.941245%
BRANCH_INDIRECT: 0 0%
BRANCH_CONDITIONAL: 46914526 22.9842%
BRANCH_DIRECT_CALL: 181985 0.0891575%
BRANCH_INDIRECT_CALL: 0 0%
BRANCH_RETURN: 181989 0.0891594%
BRANCH_OTHER: 0 0%


CPU 2 Branch Prediction Accuracy: 94.0139% MPKI: 14.4206 Average ROB Occupancy at Mispredict: 45.5687
Branch types
NOT_BRANCH: 155109450 75.8967%
BRANCH_DIRECT_JUMP: 1922475 0.940688%
BRANCH_INDIRECT: 0 0%
BRANCH_CONDITIONAL: 46972726 22.9843%
BRANCH_DIRECT_CALL: 182191 0.089148%
BRANCH_INDIRECT_CALL: 0 0%
BRANCH_RETURN: 182191 0.089148%
BRANCH_OTHER: 0 0%


CPU 3 Branch Prediction Accuracy: 94.0107% MPKI: 14.4336 Average ROB Occupancy at Mispredict: 45.542
Branch types
NOT_BRANCH: 151801815 75.9009%
BRANCH_DIRECT_JUMP: 1882466 0.941233%
BRANCH_INDIRECT: 0 0%
BRANCH_CONDITIONAL: 45958495 22.9792%
BRANCH_DIRECT_CALL: 178482 0.089241%
BRANCH_INDIRECT_CALL: 0 0%
BRANCH_RETURN: 178482 0.089241%
BRANCH_OTHER: 0 0%

DRAM PAGES: 1048576
Allocated PAGES: 551648
