
*** ChampSim Multicore Out-of-Order Simulator ***

Warmup Instructions: 50000000
Simulation Instructions: 200000000
Number of CPUs: 4
LLC sets: 8192
LLC ways: 16
Off-chip DRAM Size: 4096 MB Channels: 1 Width: 64-bit Data Rate: 6400 MT/s
CPU 0 runs ./traces/ligra/ligra_BC.com-lj.ungraph.gcc_6.3.0_O3.drop_15750M.length_250M.champsimtrace.xz
.xz
CPU 1 runs ./traces/ligra/ligra_BC.com-lj.ungraph.gcc_6.3.0_O3.drop_15750M.length_250M.champsimtrace.xz
.xz
CPU 2 runs ./traces/ligra/ligra_BC.com-lj.ungraph.gcc_6.3.0_O3.drop_15750M.length_250M.champsimtrace.xz
.xz
CPU 3 runs ./traces/ligra/ligra_BC.com-lj.ungraph.gcc_6.3.0_O3.drop_15750M.length_250M.champsimtrace.xz
.xz
BTB has LRU replacement policy
ITLB has LRU replacement policy
DTLB has LRU replacement policy
STLB has LRU replacement policy
L1I has LRU replacement policy
History Sets: 8
History Ways: 16
BERTI Size: 16
BERTI Stride Size: 8
L1D has LRU replacement policy
Initialize SRRIP state for L2C
Initialize DRRIP state for LLC
BTB has LRU replacement policy
ITLB has LRU replacement policy
DTLB has LRU replacement policy
STLB has LRU replacement policy
L1I has LRU replacement policy
History Sets: 8
History Ways: 16
BERTI Size: 16
BERTI Stride Size: 8
L1D has LRU replacement policy
Initialize SRRIP state for L2C
Initialize DRRIP state for LLC
BTB has LRU replacement policy
ITLB has LRU replacement policy
DTLB has LRU replacement policy
STLB has LRU replacement policy
L1I has LRU replacement policy
History Sets: 8
History Ways: 16
BERTI Size: 16
BERTI Stride Size: 8
L1D has LRU replacement policy
Initialize SRRIP state for L2C
Initialize DRRIP state for LLC
BTB has LRU replacement policy
ITLB has LRU replacement policy
DTLB has LRU replacement policy
STLB has LRU replacement policy
L1I has LRU replacement policy
History Sets: 8
History Ways: 16
BERTI Size: 16
BERTI Stride Size: 8
L1D has LRU replacement policy
Initialize SRRIP state for L2C
Initialize DRRIP state for LLC
Heartbeat CPU 0 instructions: 10000002 cycles: 2531124 heartbeat IPC: 3.95081 cumulative IPC: 3.95081 (Simulation time: 0 hr 2 min 13 sec) 
Heartbeat CPU 1 instructions: 10000002 cycles: 2531176 heartbeat IPC: 3.95073 cumulative IPC: 3.95073 (Simulation time: 0 hr 2 min 13 sec) 
Heartbeat CPU 2 instructions: 10000002 cycles: 2531199 heartbeat IPC: 3.9507 cumulative IPC: 3.9507 (Simulation time: 0 hr 2 min 13 sec) 
Heartbeat CPU 3 instructions: 10000002 cycles: 2531247 heartbeat IPC: 3.95062 cumulative IPC: 3.95062 (Simulation time: 0 hr 2 min 13 sec) 
Heartbeat CPU 0 instructions: 20000001 cycles: 5063574 heartbeat IPC: 3.94874 cumulative IPC: 3.94978 (Simulation time: 0 hr 5 min 6 sec) 
Heartbeat CPU 1 instructions: 20000001 cycles: 5063657 heartbeat IPC: 3.9487 cumulative IPC: 3.94971 (Simulation time: 0 hr 5 min 6 sec) 
Heartbeat CPU 2 instructions: 20000001 cycles: 5063679 heartbeat IPC: 3.9487 cumulative IPC: 3.9497 (Simulation time: 0 hr 5 min 6 sec) 
Heartbeat CPU 3 instructions: 20000001 cycles: 5063707 heartbeat IPC: 3.94873 cumulative IPC: 3.94968 (Simulation time: 0 hr 5 min 6 sec) 
Heartbeat CPU 0 instructions: 30000000 cycles: 7599296 heartbeat IPC: 3.94365 cumulative IPC: 3.94773 (Simulation time: 0 hr 7 min 51 sec) 
Heartbeat CPU 1 instructions: 30000000 cycles: 7599365 heartbeat IPC: 3.94367 cumulative IPC: 3.9477 (Simulation time: 0 hr 7 min 51 sec) 
Heartbeat CPU 2 instructions: 30000000 cycles: 7599443 heartbeat IPC: 3.94358 cumulative IPC: 3.94766 (Simulation time: 0 hr 7 min 51 sec) 
Heartbeat CPU 3 instructions: 30000000 cycles: 7599453 heartbeat IPC: 3.94361 cumulative IPC: 3.94765 (Simulation time: 0 hr 7 min 51 sec) 
Heartbeat CPU 0 instructions: 40000003 cycles: 10137046 heartbeat IPC: 3.9405 cumulative IPC: 3.94592 (Simulation time: 0 hr 10 min 26 sec) 
Heartbeat CPU 1 instructions: 40000003 cycles: 10137139 heartbeat IPC: 3.94046 cumulative IPC: 3.94589 (Simulation time: 0 hr 10 min 26 sec) 
Heartbeat CPU 2 instructions: 40000003 cycles: 10137222 heartbeat IPC: 3.94045 cumulative IPC: 3.94585 (Simulation time: 0 hr 10 min 26 sec) 
Heartbeat CPU 3 instructions: 40000003 cycles: 10137282 heartbeat IPC: 3.94038 cumulative IPC: 3.94583 (Simulation time: 0 hr 10 min 26 sec) 
Heartbeat CPU 0 instructions: 50000000 cycles: 12675913 heartbeat IPC: 3.93876 cumulative IPC: 3.94449 (Simulation time: 0 hr 13 min 24 sec) 
Heartbeat CPU 1 instructions: 50000000 cycles: 12676035 heartbeat IPC: 3.93872 cumulative IPC: 3.94445 (Simulation time: 0 hr 13 min 24 sec) 
Heartbeat CPU 2 instructions: 50000000 cycles: 12676157 heartbeat IPC: 3.93866 cumulative IPC: 3.94441 (Simulation time: 0 hr 13 min 24 sec) 
Heartbeat CPU 3 instructions: 50000000 cycles: 12676204 heartbeat IPC: 3.93868 cumulative IPC: 3.9444 (Simulation time: 0 hr 13 min 24 sec) 

Warmup complete CPU 0 instructions: 50001128 cycles: 12676205 (Simulation time: 0 hr 13 min 24 sec) 
Warmup complete CPU 1 instructions: 50000675 cycles: 12676205 (Simulation time: 0 hr 13 min 24 sec) 
Warmup complete CPU 2 instructions: 50000192 cycles: 12676205 (Simulation time: 0 hr 13 min 24 sec) 
Warmup complete CPU 3 instructions: 50000004 cycles: 12676205 (Simulation time: 0 hr 13 min 24 sec) 

Heartbeat CPU 3 instructions: 60000002 cycles: 36920935 heartbeat IPC: 0.412461 cumulative IPC: 0.412461 (Simulation time: 0 hr 17 min 35 sec) 
Heartbeat CPU 2 instructions: 60000000 cycles: 37005689 heartbeat IPC: 0.411023 cumulative IPC: 0.411016 (Simulation time: 0 hr 17 min 36 sec) 
Heartbeat CPU 0 instructions: 60000001 cycles: 37026080 heartbeat IPC: 0.410675 cumulative IPC: 0.410633 (Simulation time: 0 hr 17 min 36 sec) 
Heartbeat CPU 1 instructions: 60000000 cycles: 37236810 heartbeat IPC: 0.407153 cumulative IPC: 0.407129 (Simulation time: 0 hr 17 min 38 sec) 
Heartbeat CPU 0 instructions: 70000002 cycles: 61561821 heartbeat IPC: 0.407569 cumulative IPC: 0.409095 (Simulation time: 0 hr 21 min 52 sec) 
Heartbeat CPU 3 instructions: 70000002 cycles: 61569010 heartbeat IPC: 0.405711 cumulative IPC: 0.409058 (Simulation time: 0 hr 21 min 52 sec) 
Heartbeat CPU 2 instructions: 70000002 cycles: 61654133 heartbeat IPC: 0.405705 cumulative IPC: 0.408343 (Simulation time: 0 hr 21 min 53 sec) 
Heartbeat CPU 1 instructions: 70000002 cycles: 61694151 heartbeat IPC: 0.408875 cumulative IPC: 0.408 (Simulation time: 0 hr 21 min 53 sec) 
Heartbeat CPU 0 instructions: 80000002 cycles: 85304665 heartbeat IPC: 0.42118 cumulative IPC: 0.413046 (Simulation time: 0 hr 25 min 36 sec) 
Heartbeat CPU 3 instructions: 80000002 cycles: 85339522 heartbeat IPC: 0.420689 cumulative IPC: 0.412863 (Simulation time: 0 hr 25 min 36 sec) 
Heartbeat CPU 1 instructions: 80000000 cycles: 85478719 heartbeat IPC: 0.420441 cumulative IPC: 0.412064 (Simulation time: 0 hr 25 min 38 sec) 
Heartbeat CPU 2 instructions: 80000000 cycles: 85657371 heartbeat IPC: 0.41661 cumulative IPC: 0.411062 (Simulation time: 0 hr 25 min 39 sec) 
Heartbeat CPU 0 instructions: 90000002 cycles: 109301311 heartbeat IPC: 0.416725 cumulative IPC: 0.413959 (Simulation time: 0 hr 29 min 38 sec) 
Heartbeat CPU 2 instructions: 90000000 cycles: 109374961 heartbeat IPC: 0.421628 cumulative IPC: 0.413654 (Simulation time: 0 hr 29 min 39 sec) 
Heartbeat CPU 1 instructions: 90000002 cycles: 109407244 heartbeat IPC: 0.417911 cumulative IPC: 0.413511 (Simulation time: 0 hr 29 min 39 sec) 
Heartbeat CPU 3 instructions: 90000000 cycles: 109457503 heartbeat IPC: 0.414628 cumulative IPC: 0.413303 (Simulation time: 0 hr 29 min 40 sec) 
Heartbeat CPU 2 instructions: 100000003 cycles: 132953197 heartbeat IPC: 0.42412 cumulative IPC: 0.415706 (Simulation time: 0 hr 33 min 30 sec) 
Heartbeat CPU 0 instructions: 100000003 cycles: 132963793 heartbeat IPC: 0.42261 cumulative IPC: 0.415661 (Simulation time: 0 hr 33 min 30 sec) 
Heartbeat CPU 1 instructions: 100000003 cycles: 132963879 heartbeat IPC: 0.424509 cumulative IPC: 0.415665 (Simulation time: 0 hr 33 min 30 sec) 
Heartbeat CPU 3 instructions: 100000003 cycles: 133035238 heartbeat IPC: 0.424129 cumulative IPC: 0.415424 (Simulation time: 0 hr 33 min 31 sec) 
Heartbeat CPU 2 instructions: 110000000 cycles: 155921355 heartbeat IPC: 0.435385 cumulative IPC: 0.418861 (Simulation time: 0 hr 37 min 9 sec) 
Heartbeat CPU 1 instructions: 110000000 cycles: 156104706 heartbeat IPC: 0.432137 cumulative IPC: 0.418322 (Simulation time: 0 hr 37 min 10 sec) 
Heartbeat CPU 0 instructions: 110000000 cycles: 156246777 heartbeat IPC: 0.429498 cumulative IPC: 0.417905 (Simulation time: 0 hr 37 min 11 sec) 
Heartbeat CPU 3 instructions: 110000000 cycles: 156457157 heartbeat IPC: 0.42695 cumulative IPC: 0.417301 (Simulation time: 0 hr 37 min 13 sec) 
Heartbeat CPU 2 instructions: 120000000 cycles: 178981776 heartbeat IPC: 0.433643 cumulative IPC: 0.420911 (Simulation time: 0 hr 40 min 57 sec) 
Heartbeat CPU 1 instructions: 120000000 cycles: 179541912 heartbeat IPC: 0.426672 cumulative IPC: 0.419495 (Simulation time: 0 hr 41 min 2 sec) 
Heartbeat CPU 3 instructions: 120000000 cycles: 179549514 heartbeat IPC: 0.433044 cumulative IPC: 0.41948 (Simulation time: 0 hr 41 min 2 sec) 
Heartbeat CPU 0 instructions: 120000000 cycles: 179569449 heartbeat IPC: 0.428767 cumulative IPC: 0.419423 (Simulation time: 0 hr 41 min 3 sec) 
Heartbeat CPU 2 instructions: 130000001 cycles: 202181387 heartbeat IPC: 0.431042 cumulative IPC: 0.422151 (Simulation time: 0 hr 44 min 44 sec) 
Heartbeat CPU 1 instructions: 130000001 cycles: 202313681 heartbeat IPC: 0.43914 cumulative IPC: 0.421854 (Simulation time: 0 hr 44 min 45 sec) 
Heartbeat CPU 0 instructions: 130000001 cycles: 202320887 heartbeat IPC: 0.439533 cumulative IPC: 0.421836 (Simulation time: 0 hr 44 min 45 sec) 
Heartbeat CPU 3 instructions: 130000001 cycles: 202439427 heartbeat IPC: 0.436874 cumulative IPC: 0.421578 (Simulation time: 0 hr 44 min 46 sec) 
Heartbeat CPU 2 instructions: 140000001 cycles: 224928089 heartbeat IPC: 0.439624 cumulative IPC: 0.424024 (Simulation time: 0 hr 48 min 36 sec) 
Heartbeat CPU 1 instructions: 140000001 cycles: 225045235 heartbeat IPC: 0.439917 cumulative IPC: 0.423787 (Simulation time: 0 hr 48 min 37 sec) 
Heartbeat CPU 0 instructions: 140000001 cycles: 225123240 heartbeat IPC: 0.438551 cumulative IPC: 0.42363 (Simulation time: 0 hr 48 min 38 sec) 
Heartbeat CPU 3 instructions: 140000001 cycles: 225230353 heartbeat IPC: 0.438771 cumulative IPC: 0.423422 (Simulation time: 0 hr 48 min 39 sec) 
Heartbeat CPU 2 instructions: 150000003 cycles: 249194200 heartbeat IPC: 0.412097 cumulative IPC: 0.4228 (Simulation time: 0 hr 52 min 15 sec) 
Heartbeat CPU 1 instructions: 150000003 cycles: 249214788 heartbeat IPC: 0.413744 cumulative IPC: 0.422761 (Simulation time: 0 hr 52 min 16 sec) 
Heartbeat CPU 0 instructions: 150000003 cycles: 249242119 heartbeat IPC: 0.414613 cumulative IPC: 0.42271 (Simulation time: 0 hr 52 min 16 sec) 
Heartbeat CPU 3 instructions: 150000003 cycles: 249390942 heartbeat IPC: 0.413897 cumulative IPC: 0.422449 (Simulation time: 0 hr 52 min 17 sec) 
Heartbeat CPU 0 instructions: 160000000 cycles: 273454908 heartbeat IPC: 0.413005 cumulative IPC: 0.421809 (Simulation time: 0 hr 56 min 1 sec) 
Heartbeat CPU 2 instructions: 160000000 cycles: 273481587 heartbeat IPC: 0.411736 cumulative IPC: 0.42177 (Simulation time: 0 hr 56 min 1 sec) 
Heartbeat CPU 1 instructions: 160000000 cycles: 273633172 heartbeat IPC: 0.409527 cumulative IPC: 0.421523 (Simulation time: 0 hr 56 min 2 sec) 
Heartbeat CPU 3 instructions: 160000000 cycles: 273676684 heartbeat IPC: 0.411764 cumulative IPC: 0.421455 (Simulation time: 0 hr 56 min 3 sec) 
Heartbeat CPU 2 instructions: 170000003 cycles: 297684378 heartbeat IPC: 0.413176 cumulative IPC: 0.42104 (Simulation time: 1 hr 0 min 0 sec) 
Heartbeat CPU 0 instructions: 170000003 cycles: 297700077 heartbeat IPC: 0.412453 cumulative IPC: 0.421013 (Simulation time: 1 hr 0 min 0 sec) 
Heartbeat CPU 1 instructions: 170000003 cycles: 297780508 heartbeat IPC: 0.414124 cumulative IPC: 0.420896 (Simulation time: 1 hr 0 min 3 sec) 
Heartbeat CPU 3 instructions: 170000003 cycles: 297885600 heartbeat IPC: 0.413071 cumulative IPC: 0.420743 (Simulation time: 1 hr 0 min 5 sec) 
Heartbeat CPU 2 instructions: 180000002 cycles: 311124649 heartbeat IPC: 0.744033 cumulative IPC: 0.435585 (Simulation time: 1 hr 4 min 5 sec) 
Heartbeat CPU 0 instructions: 180000002 cycles: 311202181 heartbeat IPC: 0.740625 cumulative IPC: 0.435469 (Simulation time: 1 hr 4 min 6 sec) 
Heartbeat CPU 1 instructions: 180000002 cycles: 311271639 heartbeat IPC: 0.741228 cumulative IPC: 0.435369 (Simulation time: 1 hr 4 min 7 sec) 
Heartbeat CPU 3 instructions: 180000002 cycles: 311601340 heartbeat IPC: 0.729089 cumulative IPC: 0.434891 (Simulation time: 1 hr 4 min 14 sec) 
Heartbeat CPU 0 instructions: 190000000 cycles: 325634460 heartbeat IPC: 0.692891 cumulative IPC: 0.44734 (Simulation time: 1 hr 7 min 57 sec) 
Heartbeat CPU 2 instructions: 190000000 cycles: 325666176 heartbeat IPC: 0.687686 cumulative IPC: 0.447298 (Simulation time: 1 hr 7 min 57 sec) 
Heartbeat CPU 1 instructions: 190000000 cycles: 325810408 heartbeat IPC: 0.687816 cumulative IPC: 0.447091 (Simulation time: 1 hr 7 min 59 sec) 
Heartbeat CPU 3 instructions: 190000000 cycles: 326005647 heartbeat IPC: 0.694237 cumulative IPC: 0.446814 (Simulation time: 1 hr 8 min 2 sec) 
Heartbeat CPU 2 instructions: 200000001 cycles: 340384156 heartbeat IPC: 0.679441 cumulative IPC: 0.457724 (Simulation time: 1 hr 12 min 15 sec) 
Heartbeat CPU 0 instructions: 200000000 cycles: 340547289 heartbeat IPC: 0.670564 cumulative IPC: 0.457493 (Simulation time: 1 hr 12 min 17 sec) 
Heartbeat CPU 1 instructions: 200000001 cycles: 340571644 heartbeat IPC: 0.67745 cumulative IPC: 0.457461 (Simulation time: 1 hr 12 min 17 sec) 
Heartbeat CPU 3 instructions: 200000002 cycles: 340715763 heartbeat IPC: 0.679804 cumulative IPC: 0.457262 (Simulation time: 1 hr 12 min 19 sec) 
Heartbeat CPU 2 instructions: 210000003 cycles: 355266486 heartbeat IPC: 0.671938 cumulative IPC: 0.46703 (Simulation time: 1 hr 16 min 16 sec) 
Heartbeat CPU 0 instructions: 210000003 cycles: 355305558 heartbeat IPC: 0.677586 cumulative IPC: 0.466974 (Simulation time: 1 hr 16 min 16 sec) 
Heartbeat CPU 1 instructions: 210000003 cycles: 355399093 heartbeat IPC: 0.674425 cumulative IPC: 0.466848 (Simulation time: 1 hr 16 min 18 sec) 
Heartbeat CPU 3 instructions: 210000003 cycles: 355726693 heartbeat IPC: 0.666181 cumulative IPC: 0.466404 (Simulation time: 1 hr 16 min 24 sec) 
Heartbeat CPU 2 instructions: 220000000 cycles: 370116021 heartbeat IPC: 0.673422 cumulative IPC: 0.475604 (Simulation time: 1 hr 20 min 21 sec) 
Heartbeat CPU 0 instructions: 220000000 cycles: 370275650 heartbeat IPC: 0.667998 cumulative IPC: 0.475389 (Simulation time: 1 hr 20 min 23 sec) 
Heartbeat CPU 1 instructions: 220000000 cycles: 370343165 heartbeat IPC: 0.669161 cumulative IPC: 0.475301 (Simulation time: 1 hr 20 min 24 sec) 
Heartbeat CPU 3 instructions: 220000000 cycles: 370746251 heartbeat IPC: 0.665798 cumulative IPC: 0.474767 (Simulation time: 1 hr 20 min 30 sec) 
Heartbeat CPU 2 instructions: 230000001 cycles: 384784529 heartbeat IPC: 0.681733 cumulative IPC: 0.48373 (Simulation time: 1 hr 24 min 21 sec) 
Heartbeat CPU 0 instructions: 230000001 cycles: 384968826 heartbeat IPC: 0.680588 cumulative IPC: 0.483488 (Simulation time: 1 hr 24 min 23 sec) 
Heartbeat CPU 1 instructions: 230000001 cycles: 384996155 heartbeat IPC: 0.682455 cumulative IPC: 0.483453 (Simulation time: 1 hr 24 min 24 sec) 
Heartbeat CPU 3 instructions: 230000001 cycles: 385446087 heartbeat IPC: 0.68028 cumulative IPC: 0.482872 (Simulation time: 1 hr 24 min 30 sec) 
Heartbeat CPU 2 instructions: 240000000 cycles: 399551970 heartbeat IPC: 0.677165 cumulative IPC: 0.491113 (Simulation time: 1 hr 28 min 15 sec) 
Heartbeat CPU 1 instructions: 240000000 cycles: 399697262 heartbeat IPC: 0.680221 cumulative IPC: 0.490928 (Simulation time: 1 hr 28 min 18 sec) 
Heartbeat CPU 0 instructions: 240000000 cycles: 399750575 heartbeat IPC: 0.67651 cumulative IPC: 0.490859 (Simulation time: 1 hr 28 min 19 sec) 
Heartbeat CPU 3 instructions: 240000000 cycles: 400169627 heartbeat IPC: 0.679184 cumulative IPC: 0.490331 (Simulation time: 1 hr 28 min 26 sec) 
*** Reached end of trace for Core: 2 Repeating trace: ./traces/ligra/ligra_BC.com-lj.ungraph.gcc_6.3.0_O3.drop_15750M.length_250M.champsimtrace.xz
Heartbeat CPU 2 instructions: 250000002 cycles: 414146660 heartbeat IPC: 0.685181 cumulative IPC: 0.498168 (Simulation time: 1 hr 32 min 33 sec) 
Finished CPU 2 instructions: 200000000 cycles: 401476518 cumulative IPC: 0.498161 (Simulation time: 1 hr 32 min 33 sec) 
*** Reached end of trace for Core: 1 Repeating trace: ./traces/ligra/ligra_BC.com-lj.ungraph.gcc_6.3.0_O3.drop_15750M.length_250M.champsimtrace.xz
Heartbeat CPU 1 instructions: 250000002 cycles: 414290830 heartbeat IPC: 0.685234 cumulative IPC: 0.497988 (Simulation time: 1 hr 32 min 35 sec) 
Finished CPU 1 instructions: 200000002 cycles: 401637715 cumulative IPC: 0.497961 (Simulation time: 1 hr 32 min 35 sec) 
*** Reached end of trace for Core: 3 Repeating trace: ./traces/ligra/ligra_BC.com-lj.ungraph.gcc_6.3.0_O3.drop_15750M.length_250M.champsimtrace.xz
Heartbeat CPU 3 instructions: 250000002 cycles: 414441559 heartbeat IPC: 0.700676 cumulative IPC: 0.497803 (Simulation time: 1 hr 32 min 37 sec) 
Finished CPU 3 instructions: 200000002 cycles: 401765355 cumulative IPC: 0.497803 (Simulation time: 1 hr 32 min 37 sec) 
*** Reached end of trace for Core: 0 Repeating trace: ./traces/ligra/ligra_BC.com-lj.ungraph.gcc_6.3.0_O3.drop_15750M.length_250M.champsimtrace.xz
Heartbeat CPU 0 instructions: 250000001 cycles: 414454467 heartbeat IPC: 0.680092 cumulative IPC: 0.497784 (Simulation time: 1 hr 32 min 37 sec) 
Finished CPU 0 instructions: 200000001 cycles: 401793885 cumulative IPC: 0.497768 (Simulation time: 1 hr 32 min 37 sec) 

ChampSim completed all CPUs

Total Simulation Statistics (not including warmup)

CPU 0 cumulative IPC: 0.497768 instructions: 200000001 cycles: 401793885
ITLB TOTAL     ACCESS:   29242740  HIT:   29242720  MISS:         20  HIT %:    99.9999  MISS %: 6.8393e-05   MPKI: 0.0001
ITLB LOAD      ACCESS:          0  HIT:          0  MISS:          0  HIT %:       -nan  MISS %:       -nan   MPKI: 0
ITLB RFO       ACCESS:          0  HIT:          0  MISS:          0  HIT %:       -nan  MISS %:       -nan   MPKI: 0
ITLB PREFETCH  ACCESS:          0  HIT:          0  MISS:          0  HIT %:       -nan  MISS %:       -nan   MPKI: 0
ITLB WRITEBACK ACCESS:          0  HIT:          0  MISS:          0  HIT %:       -nan  MISS %:       -nan   MPKI: 0
DTLB TOTAL     ACCESS:   40274477  HIT:   40208686  MISS:      65791  HIT %:    99.8366  MISS %:   0.163357   MPKI: 0.328955
DTLB LOAD      ACCESS:          0  HIT:          0  MISS:          0  HIT %:       -nan  MISS %:       -nan   MPKI: 0
DTLB RFO       ACCESS:          0  HIT:          0  MISS:          0  HIT %:       -nan  MISS %:       -nan   MPKI: 0
DTLB PREFETCH  ACCESS:          0  HIT:          0  MISS:          0  HIT %:       -nan  MISS %:       -nan   MPKI: 0
DTLB WRITEBACK ACCESS:          0  HIT:          0  MISS:          0  HIT %:       -nan  MISS %:       -nan   MPKI: 0
STLB TOTAL     ACCESS:   13371849  HIT:   13306465  MISS:      65384  HIT %:     99.511  MISS %:   0.488968   MPKI: 0.32692
STLB LOAD      ACCESS:          0  HIT:          0  MISS:          0  HIT %:       -nan  MISS %:       -nan   MPKI: 0
STLB RFO       ACCESS:          0  HIT:          0  MISS:          0  HIT %:       -nan  MISS %:       -nan   MPKI: 0
STLB PREFETCH  ACCESS:          0  HIT:          0  MISS:          0  HIT %:       -nan  MISS %:       -nan   MPKI: 0
STLB WRITEBACK ACCESS:          0  HIT:          0  MISS:          0  HIT %:       -nan  MISS %:       -nan   MPKI: 0
L1D TOTAL     ACCESS:   69120101  HIT:   64504617  MISS:    4615484  HIT %:    93.3225  MISS %:    6.67748   MPKI: 23.0774
L1D LOAD      ACCESS:   17671485  HIT:   16332492  MISS:    1338993  HIT %:    92.4229  MISS %:    7.57714   MPKI: 6.69496
L1D RFO       ACCESS:   11806173  HIT:    9996059  MISS:    1810114  HIT %:    84.6681  MISS %:    15.3319   MPKI: 9.05057
L1D PREFETCH  ACCESS:   39642443  HIT:   38176066  MISS:    1466377  HIT %:     96.301  MISS %:    3.69901   MPKI: 7.33188
L1D WRITEBACK ACCESS:          0  HIT:          0  MISS:          0  HIT %:       -nan  MISS %:       -nan   MPKI: 0
L1I TOTAL     ACCESS:   40862553  HIT:   40862405  MISS:        148  HIT %:    99.9996  MISS %: 0.00036219   MPKI: 0.00074
L1I LOAD      ACCESS:   40862553  HIT:   40862405  MISS:        148  HIT %:    99.9996  MISS %: 0.00036219   MPKI: 0.00074
L1I RFO       ACCESS:          0  HIT:          0  MISS:          0  HIT %:       -nan  MISS %:       -nan   MPKI: 0
L1I PREFETCH  ACCESS:          0  HIT:          0  MISS:          0  HIT %:       -nan  MISS %:       -nan   MPKI: 0
L1I WRITEBACK ACCESS:          0  HIT:          0  MISS:          0  HIT %:       -nan  MISS %:       -nan   MPKI: 0
L2C TOTAL     ACCESS:   12899311  HIT:    8545393  MISS:    4353918  HIT %:    66.2469  MISS %:    33.7531   MPKI: 21.7696
L2C LOAD      ACCESS:    1194630  HIT:     788133  MISS:     406497  HIT %:     65.973  MISS %:     34.027   MPKI: 2.03248
L2C RFO       ACCESS:    1810091  HIT:      60413  MISS:    1749678  HIT %:    3.33757  MISS %:    96.6624   MPKI: 8.74839
L2C PREFETCH  ACCESS:    7394507  HIT:    5320886  MISS:    2073621  HIT %:    71.9573  MISS %:    28.0427   MPKI: 10.3681
L2C WRITEBACK ACCESS:    1811980  HIT:    1696511  MISS:     115469  HIT %:    93.6275  MISS %:    6.37253   MPKI: 0.577345
PSCL5 TOTAL     ACCESS:     688095  HIT:     688095  MISS:          0  HIT %:        100  MISS %:          0   MPKI: 0
PSCL5 LOAD      ACCESS:          0  HIT:          0  MISS:          0  HIT %:       -nan  MISS %:       -nan   MPKI: 0
PSCL5 RFO       ACCESS:          0  HIT:          0  MISS:          0  HIT %:       -nan  MISS %:       -nan   MPKI: 0
PSCL5 PREFETCH  ACCESS:          0  HIT:          0  MISS:          0  HIT %:       -nan  MISS %:       -nan   MPKI: 0
PSCL5 WRITEBACK ACCESS:          0  HIT:          0  MISS:          0  HIT %:       -nan  MISS %:       -nan   MPKI: 0
PSCL4 TOTAL     ACCESS:     688095  HIT:     688094  MISS:          1  HIT %:    99.9999  MISS %: 0.000145329   MPKI: 5e-06
PSCL4 LOAD      ACCESS:          0  HIT:          0  MISS:          0  HIT %:       -nan  MISS %:       -nan   MPKI: 0
PSCL4 RFO       ACCESS:          0  HIT:          0  MISS:          0  HIT %:       -nan  MISS %:       -nan   MPKI: 0
PSCL4 PREFETCH  ACCESS:          0  HIT:          0  MISS:          0  HIT %:       -nan  MISS %:       -nan   MPKI: 0
PSCL4 WRITEBACK ACCESS:          0  HIT:          0  MISS:          0  HIT %:       -nan  MISS %:       -nan   MPKI: 0
PSCL3 TOTAL     ACCESS:     688095  HIT:     688094  MISS:          1  HIT %:    99.9999  MISS %: 0.000145329   MPKI: 5e-06
PSCL3 LOAD      ACCESS:          0  HIT:          0  MISS:          0  HIT %:       -nan  MISS %:       -nan   MPKI: 0
PSCL3 RFO       ACCESS:          0  HIT:          0  MISS:          0  HIT %:       -nan  MISS %:       -nan   MPKI: 0
PSCL3 PREFETCH  ACCESS:          0  HIT:          0  MISS:          0  HIT %:       -nan  MISS %:       -nan   MPKI: 0
PSCL3 WRITEBACK ACCESS:          0  HIT:          0  MISS:          0  HIT %:       -nan  MISS %:       -nan   MPKI: 0
PSCL2 TOTAL     ACCESS:     687028  HIT:     686873  MISS:        155  HIT %:    99.9774  MISS %:  0.0225609   MPKI: 0.000775
PSCL2 LOAD      ACCESS:          0  HIT:          0  MISS:          0  HIT %:       -nan  MISS %:       -nan   MPKI: 0
PSCL2 RFO       ACCESS:          0  HIT:          0  MISS:          0  HIT %:       -nan  MISS %:       -nan   MPKI: 0
PSCL2 PREFETCH  ACCESS:          0  HIT:          0  MISS:          0  HIT %:       -nan  MISS %:       -nan   MPKI: 0
PSCL2 WRITEBACK ACCESS:          0  HIT:          0  MISS:          0  HIT %:       -nan  MISS %:       -nan   MPKI: 0
LLC TOTAL     ACCESS:    5995672  HIT:    1756422  MISS:    4239250  HIT %:    29.2948  MISS %:    70.7052   MPKI: 21.1962
LLC LOAD      ACCESS:     124059  HIT:       1056  MISS:     123003  HIT %:   0.851208  MISS %:    99.1488   MPKI: 0.615015
LLC RFO       ACCESS:    1749678  HIT:        711  MISS:    1748967  HIT %:   0.040636  MISS %:    99.9594   MPKI: 8.74483
LLC PREFETCH  ACCESS:    2356059  HIT:      47250  MISS:    2308809  HIT %:    2.00547  MISS %:    97.9945   MPKI: 11.544
LLC WRITEBACK ACCESS:    1757223  HIT:    1707101  MISS:      50122  HIT %:    97.1477  MISS %:    2.85234   MPKI: 0.25061

RAW hits: 4990734
Loads Generated: 39480535
Loads sent to L1D: 34489799
Stores Generated: 38007547
Stores sent to L1D: 38007549

CPU 1 cumulative IPC: 0.497907 instructions: 200055890 cycles: 401793885
ITLB TOTAL     ACCESS:   29244675  HIT:   29244655  MISS:         20  HIT %:    99.9999  MISS %: 6.83885e-05   MPKI: 9.99721e-05
ITLB LOAD      ACCESS:          0  HIT:          0  MISS:          0  HIT %:       -nan  MISS %:       -nan   MPKI: 0
ITLB RFO       ACCESS:          0  HIT:          0  MISS:          0  HIT %:       -nan  MISS %:       -nan   MPKI: 0
ITLB PREFETCH  ACCESS:          0  HIT:          0  MISS:          0  HIT %:       -nan  MISS %:       -nan   MPKI: 0
ITLB WRITEBACK ACCESS:          0  HIT:          0  MISS:          0  HIT %:       -nan  MISS %:       -nan   MPKI: 0
DTLB TOTAL     ACCESS:   40281719  HIT:   40215911  MISS:      65808  HIT %:    99.8366  MISS %:   0.163369   MPKI: 0.328948
DTLB LOAD      ACCESS:          0  HIT:          0  MISS:          0  HIT %:       -nan  MISS %:       -nan   MPKI: 0
DTLB RFO       ACCESS:          0  HIT:          0  MISS:          0  HIT %:       -nan  MISS %:       -nan   MPKI: 0
DTLB PREFETCH  ACCESS:          0  HIT:          0  MISS:          0  HIT %:       -nan  MISS %:       -nan   MPKI: 0
DTLB WRITEBACK ACCESS:          0  HIT:          0  MISS:          0  HIT %:       -nan  MISS %:       -nan   MPKI: 0
STLB TOTAL     ACCESS:   13362238  HIT:   13296835  MISS:      65403  HIT %:    99.5105  MISS %:   0.489461   MPKI: 0.326924
STLB LOAD      ACCESS:          0  HIT:          0  MISS:          0  HIT %:       -nan  MISS %:       -nan   MPKI: 0
STLB RFO       ACCESS:          0  HIT:          0  MISS:          0  HIT %:       -nan  MISS %:       -nan   MPKI: 0
STLB PREFETCH  ACCESS:          0  HIT:          0  MISS:          0  HIT %:       -nan  MISS %:       -nan   MPKI: 0
STLB WRITEBACK ACCESS:          0  HIT:          0  MISS:          0  HIT %:       -nan  MISS %:       -nan   MPKI: 0
L1D TOTAL     ACCESS:   68615519  HIT:   64001033  MISS:    4614486  HIT %:    93.2749  MISS %:    6.72513   MPKI: 23.066
L1D LOAD      ACCESS:   17650293  HIT:   16292404  MISS:    1357889  HIT %:    92.3067  MISS %:    7.69329   MPKI: 6.78755
L1D RFO       ACCESS:   11816117  HIT:   10005397  MISS:    1810720  HIT %:    84.6758  MISS %:    15.3242   MPKI: 9.05107
L1D PREFETCH  ACCESS:   39149109  HIT:   37703232  MISS:    1445877  HIT %:    96.3067  MISS %:    3.69326   MPKI: 7.22737
L1D WRITEBACK ACCESS:          0  HIT:          0  MISS:          0  HIT %:       -nan  MISS %:       -nan   MPKI: 0
L1I TOTAL     ACCESS:   40875067  HIT:   40874919  MISS:        148  HIT %:    99.9996  MISS %: 0.000362079   MPKI: 0.000739793
L1I LOAD      ACCESS:   40875067  HIT:   40874919  MISS:        148  HIT %:    99.9996  MISS %: 0.000362079   MPKI: 0.000739793
L1I RFO       ACCESS:          0  HIT:          0  MISS:          0  HIT %:       -nan  MISS %:       -nan   MPKI: 0
L1I PREFETCH  ACCESS:          0  HIT:          0  MISS:          0  HIT %:       -nan  MISS %:       -nan   MPKI: 0
L1I WRITEBACK ACCESS:          0  HIT:          0  MISS:          0  HIT %:       -nan  MISS %:       -nan   MPKI: 0
L2C TOTAL     ACCESS:   12883611  HIT:    8526244  MISS:    4357367  HIT %:     66.179  MISS %:     33.821   MPKI: 21.7807
L2C LOAD      ACCESS:    1213190  HIT:     806391  MISS:     406799  HIT %:    66.4686  MISS %:    33.5314   MPKI: 2.03343
L2C RFO       ACCESS:    1810692  HIT:      59727  MISS:    1750965  HIT %:    3.29857  MISS %:    96.7014   MPKI: 8.75238
L2C PREFETCH  ACCESS:    7364593  HIT:    5290413  MISS:    2074180  HIT %:    71.8358  MISS %:    28.1642   MPKI: 10.368
L2C WRITEBACK ACCESS:    1812390  HIT:    1695670  MISS:     116720  HIT %:    93.5599  MISS %:    6.44011   MPKI: 0.583437
PSCL5 TOTAL     ACCESS:     682717  HIT:     682717  MISS:          0  HIT %:        100  MISS %:          0   MPKI: 0
PSCL5 LOAD      ACCESS:          0  HIT:          0  MISS:          0  HIT %:       -nan  MISS %:       -nan   MPKI: 0
PSCL5 RFO       ACCESS:          0  HIT:          0  MISS:          0  HIT %:       -nan  MISS %:       -nan   MPKI: 0
PSCL5 PREFETCH  ACCESS:          0  HIT:          0  MISS:          0  HIT %:       -nan  MISS %:       -nan   MPKI: 0
PSCL5 WRITEBACK ACCESS:          0  HIT:          0  MISS:          0  HIT %:       -nan  MISS %:       -nan   MPKI: 0
PSCL4 TOTAL     ACCESS:     682717  HIT:     682716  MISS:          1  HIT %:    99.9999  MISS %: 0.000146474   MPKI: 4.9986e-06
PSCL4 LOAD      ACCESS:          0  HIT:          0  MISS:          0  HIT %:       -nan  MISS %:       -nan   MPKI: 0
PSCL4 RFO       ACCESS:          0  HIT:          0  MISS:          0  HIT %:       -nan  MISS %:       -nan   MPKI: 0
PSCL4 PREFETCH  ACCESS:          0  HIT:          0  MISS:          0  HIT %:       -nan  MISS %:       -nan   MPKI: 0
PSCL4 WRITEBACK ACCESS:          0  HIT:          0  MISS:          0  HIT %:       -nan  MISS %:       -nan   MPKI: 0
PSCL3 TOTAL     ACCESS:     682717  HIT:     682716  MISS:          1  HIT %:    99.9999  MISS %: 0.000146474   MPKI: 4.9986e-06
PSCL3 LOAD      ACCESS:          0  HIT:          0  MISS:          0  HIT %:       -nan  MISS %:       -nan   MPKI: 0
PSCL3 RFO       ACCESS:          0  HIT:          0  MISS:          0  HIT %:       -nan  MISS %:       -nan   MPKI: 0
PSCL3 PREFETCH  ACCESS:          0  HIT:          0  MISS:          0  HIT %:       -nan  MISS %:       -nan   MPKI: 0
PSCL3 WRITEBACK ACCESS:          0  HIT:          0  MISS:          0  HIT %:       -nan  MISS %:       -nan   MPKI: 0
PSCL2 TOTAL     ACCESS:     681706  HIT:     681551  MISS:        155  HIT %:    99.9773  MISS %:  0.0227371   MPKI: 0.000774783
PSCL2 LOAD      ACCESS:          0  HIT:          0  MISS:          0  HIT %:       -nan  MISS %:       -nan   MPKI: 0
PSCL2 RFO       ACCESS:          0  HIT:          0  MISS:          0  HIT %:       -nan  MISS %:       -nan   MPKI: 0
PSCL2 PREFETCH  ACCESS:          0  HIT:          0  MISS:          0  HIT %:       -nan  MISS %:       -nan   MPKI: 0
PSCL2 WRITEBACK ACCESS:          0  HIT:          0  MISS:          0  HIT %:       -nan  MISS %:       -nan   MPKI: 0
LLC TOTAL     ACCESS:    5998606  HIT:    1757749  MISS:    4240857  HIT %:    29.3026  MISS %:    70.6974   MPKI: 21.1984
LLC LOAD      ACCESS:     124236  HIT:       1176  MISS:     123060  HIT %:   0.946586  MISS %:    99.0534   MPKI: 0.615128
LLC RFO       ACCESS:    1750959  HIT:        585  MISS:    1750374  HIT %:  0.0334103  MISS %:    99.9666   MPKI: 8.74942
LLC PREFETCH  ACCESS:    2356748  HIT:      48211  MISS:    2308537  HIT %:    2.04566  MISS %:    97.9543   MPKI: 11.5395
LLC WRITEBACK ACCESS:    1757960  HIT:    1707424  MISS:      50536  HIT %:    97.1253  MISS %:     2.8747   MPKI: 0.252609

RAW hits: 4992132
Loads Generated: 39487118
Loads sent to L1D: 34494986
Stores Generated: 38019347
Stores sent to L1D: 38019354

CPU 2 cumulative IPC: 0.498126 instructions: 200143907 cycles: 401793885
ITLB TOTAL     ACCESS:   29260047  HIT:   29260027  MISS:         20  HIT %:    99.9999  MISS %: 6.83526e-05   MPKI: 9.99281e-05
ITLB LOAD      ACCESS:          0  HIT:          0  MISS:          0  HIT %:       -nan  MISS %:       -nan   MPKI: 0
ITLB RFO       ACCESS:          0  HIT:          0  MISS:          0  HIT %:       -nan  MISS %:       -nan   MPKI: 0
ITLB PREFETCH  ACCESS:          0  HIT:          0  MISS:          0  HIT %:       -nan  MISS %:       -nan   MPKI: 0
ITLB WRITEBACK ACCESS:          0  HIT:          0  MISS:          0  HIT %:       -nan  MISS %:       -nan   MPKI: 0
DTLB TOTAL     ACCESS:   40304122  HIT:   40238283  MISS:      65839  HIT %:    99.8366  MISS %:   0.163355   MPKI: 0.328958
DTLB LOAD      ACCESS:          0  HIT:          0  MISS:          0  HIT %:       -nan  MISS %:       -nan   MPKI: 0
DTLB RFO       ACCESS:          0  HIT:          0  MISS:          0  HIT %:       -nan  MISS %:       -nan   MPKI: 0
DTLB PREFETCH  ACCESS:          0  HIT:          0  MISS:          0  HIT %:       -nan  MISS %:       -nan   MPKI: 0
DTLB WRITEBACK ACCESS:          0  HIT:          0  MISS:          0  HIT %:       -nan  MISS %:       -nan   MPKI: 0
STLB TOTAL     ACCESS:   13460700  HIT:   13395267  MISS:      65433  HIT %:    99.5139  MISS %:   0.486104   MPKI: 0.32693
STLB LOAD      ACCESS:          0  HIT:          0  MISS:          0  HIT %:       -nan  MISS %:       -nan   MPKI: 0
STLB RFO       ACCESS:          0  HIT:          0  MISS:          0  HIT %:       -nan  MISS %:       -nan   MPKI: 0
STLB PREFETCH  ACCESS:          0  HIT:          0  MISS:          0  HIT %:       -nan  MISS %:       -nan   MPKI: 0
STLB WRITEBACK ACCESS:          0  HIT:          0  MISS:          0  HIT %:       -nan  MISS %:       -nan   MPKI: 0
L1D TOTAL     ACCESS:   69617725  HIT:   64999937  MISS:    4617788  HIT %:    93.3669  MISS %:    6.63306   MPKI: 23.0723
L1D LOAD      ACCESS:   17672152  HIT:   16333470  MISS:    1338682  HIT %:    92.4249  MISS %:    7.57509   MPKI: 6.6886
L1D RFO       ACCESS:   11841834  HIT:   10029822  MISS:    1812012  HIT %:    84.6982  MISS %:    15.3018   MPKI: 9.05355
L1D PREFETCH  ACCESS:   40103739  HIT:   38636645  MISS:    1467094  HIT %:    96.3418  MISS %:    3.65825   MPKI: 7.3302
L1D WRITEBACK ACCESS:          0  HIT:          0  MISS:          0  HIT %:       -nan  MISS %:       -nan   MPKI: 0
L1I TOTAL     ACCESS:   40894982  HIT:   40894834  MISS:        148  HIT %:    99.9996  MISS %: 0.000361903   MPKI: 0.000739468
L1I LOAD      ACCESS:   40894982  HIT:   40894834  MISS:        148  HIT %:    99.9996  MISS %: 0.000361903   MPKI: 0.000739468
L1I RFO       ACCESS:          0  HIT:          0  MISS:          0  HIT %:       -nan  MISS %:       -nan   MPKI: 0
L1I PREFETCH  ACCESS:          0  HIT:          0  MISS:          0  HIT %:       -nan  MISS %:       -nan   MPKI: 0
L1I WRITEBACK ACCESS:          0  HIT:          0  MISS:          0  HIT %:       -nan  MISS %:       -nan   MPKI: 0
L2C TOTAL     ACCESS:   12712396  HIT:    8357241  MISS:    4355155  HIT %:    65.7409  MISS %:    34.2591   MPKI: 21.7601
L2C LOAD      ACCESS:    1192220  HIT:     787423  MISS:     404797  HIT %:    66.0468  MISS %:    33.9532   MPKI: 2.02253
L2C RFO       ACCESS:    1811985  HIT:      61338  MISS:    1750647  HIT %:    3.38513  MISS %:    96.6149   MPKI: 8.74694
L2C PREFETCH  ACCESS:    7209921  HIT:    5132001  MISS:    2077920  HIT %:    71.1797  MISS %:    28.8203   MPKI: 10.3821
L2C WRITEBACK ACCESS:    1813464  HIT:    1700350  MISS:     113114  HIT %:    93.7625  MISS %:    6.23745   MPKI: 0.565163
PSCL5 TOTAL     ACCESS:     684797  HIT:     684797  MISS:          0  HIT %:        100  MISS %:          0   MPKI: 0
PSCL5 LOAD      ACCESS:          0  HIT:          0  MISS:          0  HIT %:       -nan  MISS %:       -nan   MPKI: 0
PSCL5 RFO       ACCESS:          0  HIT:          0  MISS:          0  HIT %:       -nan  MISS %:       -nan   MPKI: 0
PSCL5 PREFETCH  ACCESS:          0  HIT:          0  MISS:          0  HIT %:       -nan  MISS %:       -nan   MPKI: 0
PSCL5 WRITEBACK ACCESS:          0  HIT:          0  MISS:          0  HIT %:       -nan  MISS %:       -nan   MPKI: 0
PSCL4 TOTAL     ACCESS:     684797  HIT:     684796  MISS:          1  HIT %:    99.9999  MISS %: 0.000146029   MPKI: 4.9964e-06
PSCL4 LOAD      ACCESS:          0  HIT:          0  MISS:          0  HIT %:       -nan  MISS %:       -nan   MPKI: 0
PSCL4 RFO       ACCESS:          0  HIT:          0  MISS:          0  HIT %:       -nan  MISS %:       -nan   MPKI: 0
PSCL4 PREFETCH  ACCESS:          0  HIT:          0  MISS:          0  HIT %:       -nan  MISS %:       -nan   MPKI: 0
PSCL4 WRITEBACK ACCESS:          0  HIT:          0  MISS:          0  HIT %:       -nan  MISS %:       -nan   MPKI: 0
PSCL3 TOTAL     ACCESS:     684797  HIT:     684796  MISS:          1  HIT %:    99.9999  MISS %: 0.000146029   MPKI: 4.9964e-06
PSCL3 LOAD      ACCESS:          0  HIT:          0  MISS:          0  HIT %:       -nan  MISS %:       -nan   MPKI: 0
PSCL3 RFO       ACCESS:          0  HIT:          0  MISS:          0  HIT %:       -nan  MISS %:       -nan   MPKI: 0
PSCL3 PREFETCH  ACCESS:          0  HIT:          0  MISS:          0  HIT %:       -nan  MISS %:       -nan   MPKI: 0
PSCL3 WRITEBACK ACCESS:          0  HIT:          0  MISS:          0  HIT %:       -nan  MISS %:       -nan   MPKI: 0
PSCL2 TOTAL     ACCESS:     683824  HIT:     683669  MISS:        155  HIT %:    99.9773  MISS %:  0.0226667   MPKI: 0.000774443
PSCL2 LOAD      ACCESS:          0  HIT:          0  MISS:          0  HIT %:       -nan  MISS %:       -nan   MPKI: 0
PSCL2 RFO       ACCESS:          0  HIT:          0  MISS:          0  HIT %:       -nan  MISS %:       -nan   MPKI: 0
PSCL2 PREFETCH  ACCESS:          0  HIT:          0  MISS:          0  HIT %:       -nan  MISS %:       -nan   MPKI: 0
PSCL2 WRITEBACK ACCESS:          0  HIT:          0  MISS:          0  HIT %:       -nan  MISS %:       -nan   MPKI: 0
LLC TOTAL     ACCESS:    6001415  HIT:    1759038  MISS:    4242377  HIT %:    29.3104  MISS %:    70.6896   MPKI: 21.1966
LLC LOAD      ACCESS:     123077  HIT:       1026  MISS:     122051  HIT %:   0.833624  MISS %:    99.1664   MPKI: 0.609816
LLC RFO       ACCESS:    1750637  HIT:        739  MISS:    1749898  HIT %:  0.0422132  MISS %:    99.9578   MPKI: 8.7432
LLC PREFETCH  ACCESS:    2359648  HIT:      47720  MISS:    2311928  HIT %:    2.02234  MISS %:    97.9777   MPKI: 11.5513
LLC WRITEBACK ACCESS:    1759376  HIT:    1709230  MISS:      50146  HIT %:    97.1498  MISS %:    2.85022   MPKI: 0.25055

RAW hits: 4991478
Loads Generated: 39497684
Loads sent to L1D: 34506206
Stores Generated: 38037653
Stores sent to L1D: 38037655

CPU 3 cumulative IPC: 0.497773 instructions: 200002315 cycles: 401793885
ITLB TOTAL     ACCESS:   29242065  HIT:   29242045  MISS:         20  HIT %:    99.9999  MISS %: 6.83946e-05   MPKI: 9.99988e-05
ITLB LOAD      ACCESS:          0  HIT:          0  MISS:          0  HIT %:       -nan  MISS %:       -nan   MPKI: 0
ITLB RFO       ACCESS:          0  HIT:          0  MISS:          0  HIT %:       -nan  MISS %:       -nan   MPKI: 0
ITLB PREFETCH  ACCESS:          0  HIT:          0  MISS:          0  HIT %:       -nan  MISS %:       -nan   MPKI: 0
ITLB WRITEBACK ACCESS:          0  HIT:          0  MISS:          0  HIT %:       -nan  MISS %:       -nan   MPKI: 0
DTLB TOTAL     ACCESS:   40260932  HIT:   40195141  MISS:      65791  HIT %:    99.8366  MISS %:   0.163412   MPKI: 0.328951
DTLB LOAD      ACCESS:          0  HIT:          0  MISS:          0  HIT %:       -nan  MISS %:       -nan   MPKI: 0
DTLB RFO       ACCESS:          0  HIT:          0  MISS:          0  HIT %:       -nan  MISS %:       -nan   MPKI: 0
DTLB PREFETCH  ACCESS:          0  HIT:          0  MISS:          0  HIT %:       -nan  MISS %:       -nan   MPKI: 0
DTLB WRITEBACK ACCESS:          0  HIT:          0  MISS:          0  HIT %:       -nan  MISS %:       -nan   MPKI: 0
STLB TOTAL     ACCESS:   13358234  HIT:   13292850  MISS:      65384  HIT %:    99.5105  MISS %:   0.489466   MPKI: 0.326916
STLB LOAD      ACCESS:          0  HIT:          0  MISS:          0  HIT %:       -nan  MISS %:       -nan   MPKI: 0
STLB RFO       ACCESS:          0  HIT:          0  MISS:          0  HIT %:       -nan  MISS %:       -nan   MPKI: 0
STLB PREFETCH  ACCESS:          0  HIT:          0  MISS:          0  HIT %:       -nan  MISS %:       -nan   MPKI: 0
STLB WRITEBACK ACCESS:          0  HIT:          0  MISS:          0  HIT %:       -nan  MISS %:       -nan   MPKI: 0
L1D TOTAL     ACCESS:   68578697  HIT:   63964803  MISS:    4613894  HIT %:    93.2721  MISS %:    6.72788   MPKI: 23.0692
L1D LOAD      ACCESS:   17651113  HIT:   16301125  MISS:    1349988  HIT %:    92.3518  MISS %:    7.64817   MPKI: 6.74986
L1D RFO       ACCESS:   11802672  HIT:    9992685  MISS:    1809987  HIT %:    84.6646  MISS %:    15.3354   MPKI: 9.04983
L1D PREFETCH  ACCESS:   39124912  HIT:   37670993  MISS:    1453919  HIT %:    96.2839  MISS %:     3.7161   MPKI: 7.26951
L1D WRITEBACK ACCESS:          0  HIT:          0  MISS:          0  HIT %:       -nan  MISS %:       -nan   MPKI: 0
L1I TOTAL     ACCESS:   40864207  HIT:   40864059  MISS:        148  HIT %:    99.9996  MISS %: 0.000362175   MPKI: 0.000739991
L1I LOAD      ACCESS:   40864207  HIT:   40864059  MISS:        148  HIT %:    99.9996  MISS %: 0.000362175   MPKI: 0.000739991
L1I RFO       ACCESS:          0  HIT:          0  MISS:          0  HIT %:       -nan  MISS %:       -nan   MPKI: 0
L1I PREFETCH  ACCESS:          0  HIT:          0  MISS:          0  HIT %:       -nan  MISS %:       -nan   MPKI: 0
L1I WRITEBACK ACCESS:          0  HIT:          0  MISS:          0  HIT %:       -nan  MISS %:       -nan   MPKI: 0
L2C TOTAL     ACCESS:   13084780  HIT:    8731567  MISS:    4353213  HIT %:    66.7307  MISS %:    33.2693   MPKI: 21.7658
L2C LOAD      ACCESS:    1205044  HIT:     799021  MISS:     406023  HIT %:    66.3064  MISS %:    33.6936   MPKI: 2.03009
L2C RFO       ACCESS:    1809965  HIT:      59875  MISS:    1750090  HIT %:    3.30808  MISS %:    96.6919   MPKI: 8.75035
L2C PREFETCH  ACCESS:    7570959  HIT:    5497374  MISS:    2073585  HIT %:    72.6113  MISS %:    27.3887   MPKI: 10.3678
L2C WRITEBACK ACCESS:    1811920  HIT:    1697112  MISS:     114808  HIT %:    93.6637  MISS %:    6.33626   MPKI: 0.574033
PSCL5 TOTAL     ACCESS:     686880  HIT:     686880  MISS:          0  HIT %:        100  MISS %:          0   MPKI: 0
PSCL5 LOAD      ACCESS:          0  HIT:          0  MISS:          0  HIT %:       -nan  MISS %:       -nan   MPKI: 0
PSCL5 RFO       ACCESS:          0  HIT:          0  MISS:          0  HIT %:       -nan  MISS %:       -nan   MPKI: 0
PSCL5 PREFETCH  ACCESS:          0  HIT:          0  MISS:          0  HIT %:       -nan  MISS %:       -nan   MPKI: 0
PSCL5 WRITEBACK ACCESS:          0  HIT:          0  MISS:          0  HIT %:       -nan  MISS %:       -nan   MPKI: 0
PSCL4 TOTAL     ACCESS:     686880  HIT:     686879  MISS:          1  HIT %:    99.9999  MISS %: 0.000145586   MPKI: 4.99994e-06
PSCL4 LOAD      ACCESS:          0  HIT:          0  MISS:          0  HIT %:       -nan  MISS %:       -nan   MPKI: 0
PSCL4 RFO       ACCESS:          0  HIT:          0  MISS:          0  HIT %:       -nan  MISS %:       -nan   MPKI: 0
PSCL4 PREFETCH  ACCESS:          0  HIT:          0  MISS:          0  HIT %:       -nan  MISS %:       -nan   MPKI: 0
PSCL4 WRITEBACK ACCESS:          0  HIT:          0  MISS:          0  HIT %:       -nan  MISS %:       -nan   MPKI: 0
PSCL3 TOTAL     ACCESS:     686880  HIT:     686879  MISS:          1  HIT %:    99.9999  MISS %: 0.000145586   MPKI: 4.99994e-06
PSCL3 LOAD      ACCESS:          0  HIT:          0  MISS:          0  HIT %:       -nan  MISS %:       -nan   MPKI: 0
PSCL3 RFO       ACCESS:          0  HIT:          0  MISS:          0  HIT %:       -nan  MISS %:       -nan   MPKI: 0
PSCL3 PREFETCH  ACCESS:          0  HIT:          0  MISS:          0  HIT %:       -nan  MISS %:       -nan   MPKI: 0
PSCL3 WRITEBACK ACCESS:          0  HIT:          0  MISS:          0  HIT %:       -nan  MISS %:       -nan   MPKI: 0
PSCL2 TOTAL     ACCESS:     686063  HIT:     685908  MISS:        155  HIT %:    99.9774  MISS %:  0.0225927   MPKI: 0.000774991
PSCL2 LOAD      ACCESS:          0  HIT:          0  MISS:          0  HIT %:       -nan  MISS %:       -nan   MPKI: 0
PSCL2 RFO       ACCESS:          0  HIT:          0  MISS:          0  HIT %:       -nan  MISS %:       -nan   MPKI: 0
PSCL2 PREFETCH  ACCESS:          0  HIT:          0  MISS:          0  HIT %:       -nan  MISS %:       -nan   MPKI: 0
PSCL2 WRITEBACK ACCESS:          0  HIT:          0  MISS:          0  HIT %:       -nan  MISS %:       -nan   MPKI: 0
LLC TOTAL     ACCESS:    5995921  HIT:    1755995  MISS:    4239926  HIT %:    29.2865  MISS %:    70.7135   MPKI: 21.1994
LLC LOAD      ACCESS:     122856  HIT:       1065  MISS:     121791  HIT %:   0.866869  MISS %:    99.1331   MPKI: 0.608948
LLC RFO       ACCESS:    1750085  HIT:        539  MISS:    1749546  HIT %:  0.0307985  MISS %:    99.9692   MPKI: 8.74763
LLC PREFETCH  ACCESS:    2356757  HIT:      47316  MISS:    2309441  HIT %:    2.00767  MISS %:    97.9923   MPKI: 11.5471
LLC WRITEBACK ACCESS:    1757516  HIT:    1706714  MISS:      50802  HIT %:    97.1094  MISS %:    2.89056   MPKI: 0.254007

RAW hits: 4993516
Loads Generated: 39480816
Loads sent to L1D: 34487300
Stores Generated: 38007965
Stores sent to L1D: 38007993

Region of Interest Statistics

CPU 0 cumulative IPC: 0.497768 instructions: 200000001 cycles: 401793885
ITLB TOTAL     ACCESS:   29242740  HIT:   29242720  MISS:         20  HIT %:    99.9999  MISS %: 6.8393e-05   MPKI: 0.0001
ITLB LOAD TRANSLATION ACCESS:   29242740  HIT:   29242720  MISS:         20  HIT %:    99.9999  MISS %: 6.8393e-05   MPKI: 0.0001
ITLB PREFETCH  REQUESTED:          0  ISSUED:          0  USEFUL:          0  USELESS:          0
ITLB USEFUL LOAD PREFETCHES:          0 PREFETCH ISSUED TO LOWER LEVEL:          0  ACCURACY: -nan
ITLB TIMELY PREFETCHES:          0 LATE PREFETCHES: 0 DROPPED PREFETCHES: 0
ITLB PREFETCHES SAME FILL-ORIGIN LEVEL: 0 DIFFERENT FILL-ORIGIN LEVEL: 0
ITLB AVERAGE MISS LATENCY: 302.7 cycles
ITLB RQ	ACCESS:   40862577	FORWARD:          0	MERGED:   11619833	TO_CACHE:   29242744

DTLB TOTAL     ACCESS:   40274477  HIT:   40208686  MISS:      65791  HIT %:    99.8366  MISS %:   0.163357   MPKI: 0.328955
DTLB LOAD TRANSLATION ACCESS:   40274477  HIT:   40208686  MISS:      65791  HIT %:    99.8366  MISS %:   0.163357   MPKI: 0.328955
DTLB PREFETCH  REQUESTED:          0  ISSUED:          0  USEFUL:          0  USELESS:          0
DTLB USEFUL LOAD PREFETCHES:          0 PREFETCH ISSUED TO LOWER LEVEL:          0  ACCURACY: -nan
DTLB TIMELY PREFETCHES:          0 LATE PREFETCHES: 0 DROPPED PREFETCHES: 0
DTLB PREFETCHES SAME FILL-ORIGIN LEVEL: 0 DIFFERENT FILL-ORIGIN LEVEL: 0
DTLB AVERAGE MISS LATENCY: 264.624 cycles
DTLB RQ	ACCESS:   54895444	FORWARD:          0	MERGED:   14450474	TO_CACHE:   40444970

STLB TOTAL     ACCESS:   13371849  HIT:   13306465  MISS:      65384  HIT %:     99.511  MISS %:   0.488968   MPKI: 0.32692
STLB LOAD TRANSLATION ACCESS:      65811  HIT:        427  MISS:      65384  HIT %:   0.648828  MISS %:    99.3512   MPKI: 0.32692
STLB TRANSLATION FROM L1D PREFETCHER ACCESS:   13306038  HIT:   13306038  MISS:          0  HIT %:        100  MISS %:          0   MPKI: 0
STLB PREFETCH  REQUESTED:          0  ISSUED:          0  USEFUL:          0  USELESS:          0
STLB USEFUL LOAD PREFETCHES:          0 PREFETCH ISSUED TO LOWER LEVEL:          0  ACCURACY: -nan
STLB TIMELY PREFETCHES:          0 LATE PREFETCHES: 7575 DROPPED PREFETCHES: 615136
STLB PREFETCHES SAME FILL-ORIGIN LEVEL: 0 DIFFERENT FILL-ORIGIN LEVEL: 0
STLB AVERAGE MISS LATENCY: 254.227 cycles
STLB RQ	ACCESS:   58231100	FORWARD:          0	MERGED:   44176893	TO_CACHE:   14054207

STLB Hit, L1D data hit: 0
STLB Hit, L2C data hit: 0
STLB Hit, LLC data hit: 0
STLB Hit, LLC data miss: 0
STLB STLB hints to L2: 0
L1D TOTAL     ACCESS:   69120101  HIT:   64504617  MISS:    4615484  HIT %:    93.3225  MISS %:    6.67748   MPKI: 23.0774
L1D LOAD      ACCESS:   17671485  HIT:   16332492  MISS:    1338993  HIT %:    92.4229  MISS %:    7.57714   MPKI: 6.69496
L1D RFO       ACCESS:   11806173  HIT:    9996059  MISS:    1810114  HIT %:    84.6681  MISS %:    15.3319   MPKI: 9.05057
L1D PREFETCH  ACCESS:   39642443  HIT:   38176066  MISS:    1466377  HIT %:     96.301  MISS %:    3.69901   MPKI: 7.33188
L1D PREFETCH  REQUESTED:  143258857  ISSUED:  134980119  USEFUL:    1448262  USELESS:      18122
L1D USEFUL LOAD PREFETCHES:    1448262 PREFETCH ISSUED TO LOWER LEVEL:   12775639  ACCURACY: 11.3361
L1D TIMELY PREFETCHES:    1448262 LATE PREFETCHES: 144510 DROPPED PREFETCHES: 1850499
L1D PREFETCHES SAME FILL-ORIGIN LEVEL: 1610887 DIFFERENT FILL-ORIGIN LEVEL: 11164752
L1D AVERAGE MISS LATENCY: 506.592 cycles
L1D RQ	ACCESS:   34489799	FORWARD:          0	MERGED:   15387546	TO_CACHE:   19069199
L1D WQ	ACCESS:   38007549	FORWARD:      36573	MERGED:    2181304	TO_CACHE:   35826245
L1D PQ	ACCESS:   76814830	FORWARD:          0	MERGED:   18646022	TO_CACHE:   58165289

L1D UNIQUE REGIONS ACCESSED: 0
L1D REGIONS CONFLICTS: 0
L1D Cross Page Prefetch Requests: 7474568
L1D Same Page Prefetch Requests: 96172584
L1D ROI Sum of L1D PQ occupancy: 983449366
L1D PREFETCHES PUSHED FROM L2C: 0
L1I TOTAL     ACCESS:   40862553  HIT:   40862405  MISS:        148  HIT %:    99.9996  MISS %: 0.00036219   MPKI: 0.00074
L1I LOAD      ACCESS:   40862553  HIT:   40862405  MISS:        148  HIT %:    99.9996  MISS %: 0.00036219   MPKI: 0.00074
L1I PREFETCH  REQUESTED:          0  ISSUED:          0  USEFUL:          0  USELESS:          0
L1I USEFUL LOAD PREFETCHES:          0 PREFETCH ISSUED TO LOWER LEVEL:          0  ACCURACY: -nan
L1I TIMELY PREFETCHES:          0 LATE PREFETCHES: 0 DROPPED PREFETCHES: 0
L1I PREFETCHES SAME FILL-ORIGIN LEVEL: 0 DIFFERENT FILL-ORIGIN LEVEL: 0
L1I AVERAGE MISS LATENCY: 300.297 cycles
L1I RQ	ACCESS:   47922142	FORWARD:          0	MERGED:    7059565	TO_CACHE:   40862577

BTB TOTAL     ACCESS:   23429653  HIT:   23429504  MISS:        149  HIT %:    99.9994  MISS %: 0.000635946   MPKI: 0.000745
BTB BRANCH_DIRECT_JUMP	ACCESS:        470  HIT:        445  MISS:         25
BTB BRANCH_INDIRECT	ACCESS:          3  HIT:          0  MISS:          3
BTB BRANCH_CONDITIONAL	ACCESS:   23428235  HIT:   23428159  MISS:         76
BTB BRANCH_DIRECT_CALL	ACCESS:        472  HIT:        453  MISS:         19
BTB BRANCH_INDIRECT_CALL	ACCESS:          2  HIT:          0  MISS:          2
BTB BRANCH_RETURN	ACCESS:        471  HIT:        447  MISS:         24
BTB BRANCH_OTHER ACCESS:          0  HIT:          0  MISS:          0

L2C TOTAL     ACCESS:   12899311  HIT:    8545393  MISS:    4353918  HIT %:    66.2469  MISS %:    33.7531   MPKI: 21.7696
L2C LOAD      ACCESS:    1194630  HIT:     788133  MISS:     406497  HIT %:     65.973  MISS %:     34.027   MPKI: 2.03248
L2C DATA LOAD MPKI: 2.03174
L2C INSTRUCTION LOAD MPKI: 0.00074
L2C RFO       ACCESS:    1810091  HIT:      60413  MISS:    1749678  HIT %:    3.33757  MISS %:    96.6624   MPKI: 8.74839
L2C PREFETCH  ACCESS:    7394507  HIT:    5320886  MISS:    2073621  HIT %:    71.9573  MISS %:    28.0427   MPKI: 10.3681
L2C DATA PREFETCH MPKI: 10.3681
L2C INSTRUCTION PREFETCH MPKI: 0
L2C WRITEBACK ACCESS:    1811980  HIT:    1696511  MISS:     115469  HIT %:    93.6275  MISS %:    6.37253   MPKI: 0.577345
L2C LOAD TRANSLATION ACCESS:      65391  HIT:      61621  MISS:       3770  HIT %:    94.2347  MISS %:    5.76532   MPKI: 0.01885
L2C TRANSLATION FROM L1D PREFETCHER ACCESS:     622712  HIT:     617829  MISS:       4883  HIT %:    99.2158  MISS %:   0.784151   MPKI: 0.024415
L2C PREFETCH  REQUESTED:          0  ISSUED:          0  USEFUL:     716818  USELESS:    1364714
L2C USEFUL LOAD PREFETCHES:     716818 PREFETCH ISSUED TO LOWER LEVEL:    2356059  ACCURACY: 30.4245
L2C TIMELY PREFETCHES:     716818 LATE PREFETCHES: 282438 DROPPED PREFETCHES: 0
L2C PREFETCHES SAME FILL-ORIGIN LEVEL: 1626169 DIFFERENT FILL-ORIGIN LEVEL: 0
L2C AVERAGE MISS LATENCY: 736.634 cycles
L2C RQ	ACCESS:    3692851	FORWARD:          0	MERGED:          0	TO_CACHE:    3692827
L2C WQ	ACCESS:    1811980	FORWARD:         33	MERGED:          0	TO_CACHE:    1811980
L2C PQ	ACCESS:   12772060	FORWARD:          0	MERGED:      88374	TO_CACHE:   12683677

L2C Instructions Evicting Data 148
L2C Translations Evicting Data 8642
L2C Data Evicting Data 4221110
L2C Instructions Evicting Instructions 0
L2C Translations Evicting Instructions 0
L2C Data Evicting Instructions 147
L2C Instructions Evicting Translations 0
L2C Translations Evicting Translations 11
L2C Data Evicting Translations 8391
L2C Dense regions hint from L2: 0
PSCL5 TOTAL     ACCESS:     688095  HIT:     688095  MISS:          0  HIT %:        100  MISS %:          0   MPKI: 0
PSCL5 LOAD TRANSLATION ACCESS:      65384  HIT:      65384  MISS:          0  HIT %:        100  MISS %:          0   MPKI: 0
PSCL5 TRANSLATION FROM L1D PREFETCHER ACCESS:     622711  HIT:     622711  MISS:          0  HIT %:        100  MISS %:          0   MPKI: 0
PSCL5 PREFETCH  REQUESTED:          0  ISSUED:          0  USEFUL:          0  USELESS:          0
PSCL5 USEFUL LOAD PREFETCHES:          0 PREFETCH ISSUED TO LOWER LEVEL:          0  ACCURACY: -nan
PSCL5 TIMELY PREFETCHES:          0 LATE PREFETCHES: 0 DROPPED PREFETCHES: 0
PSCL5 PREFETCHES SAME FILL-ORIGIN LEVEL: 0 DIFFERENT FILL-ORIGIN LEVEL: 0

PSCL4 TOTAL     ACCESS:     688095  HIT:     688094  MISS:          1  HIT %:    99.9999  MISS %: 0.000145329   MPKI: 5e-06
PSCL4 LOAD TRANSLATION ACCESS:      65384  HIT:      65383  MISS:          1  HIT %:    99.9985  MISS %: 0.00152943   MPKI: 5e-06
PSCL4 TRANSLATION FROM L1D PREFETCHER ACCESS:     622711  HIT:     622711  MISS:          0  HIT %:        100  MISS %:          0   MPKI: 0
PSCL4 PREFETCH  REQUESTED:          0  ISSUED:          0  USEFUL:          0  USELESS:          0
PSCL4 USEFUL LOAD PREFETCHES:          0 PREFETCH ISSUED TO LOWER LEVEL:          0  ACCURACY: -nan
PSCL4 TIMELY PREFETCHES:          0 LATE PREFETCHES: 0 DROPPED PREFETCHES: 0
PSCL4 PREFETCHES SAME FILL-ORIGIN LEVEL: 0 DIFFERENT FILL-ORIGIN LEVEL: 0

PSCL3 TOTAL     ACCESS:     688095  HIT:     688094  MISS:          1  HIT %:    99.9999  MISS %: 0.000145329   MPKI: 5e-06
PSCL3 LOAD TRANSLATION ACCESS:      65384  HIT:      65383  MISS:          1  HIT %:    99.9985  MISS %: 0.00152943   MPKI: 5e-06
PSCL3 TRANSLATION FROM L1D PREFETCHER ACCESS:     622711  HIT:     622711  MISS:          0  HIT %:        100  MISS %:          0   MPKI: 0
PSCL3 PREFETCH  REQUESTED:          0  ISSUED:          0  USEFUL:          0  USELESS:          0
PSCL3 USEFUL LOAD PREFETCHES:          0 PREFETCH ISSUED TO LOWER LEVEL:          0  ACCURACY: -nan
PSCL3 TIMELY PREFETCHES:          0 LATE PREFETCHES: 0 DROPPED PREFETCHES: 0
PSCL3 PREFETCHES SAME FILL-ORIGIN LEVEL: 0 DIFFERENT FILL-ORIGIN LEVEL: 0

PSCL2 TOTAL     ACCESS:     687028  HIT:     686873  MISS:        155  HIT %:    99.9774  MISS %:  0.0225609   MPKI: 0.000775
PSCL2 LOAD TRANSLATION ACCESS:      65384  HIT:      65229  MISS:        155  HIT %:    99.7629  MISS %:   0.237061   MPKI: 0.000775
PSCL2 TRANSLATION FROM L1D PREFETCHER ACCESS:     621644  HIT:     621644  MISS:          0  HIT %:        100  MISS %:          0   MPKI: 0
PSCL2 PREFETCH  REQUESTED:          0  ISSUED:          0  USEFUL:          0  USELESS:          0
PSCL2 USEFUL LOAD PREFETCHES:          0 PREFETCH ISSUED TO LOWER LEVEL:          0  ACCURACY: -nan
PSCL2 TIMELY PREFETCHES:          0 LATE PREFETCHES: 0 DROPPED PREFETCHES: 0
PSCL2 PREFETCHES SAME FILL-ORIGIN LEVEL: 0 DIFFERENT FILL-ORIGIN LEVEL: 0

LLC TOTAL     ACCESS:    5995672  HIT:    1756422  MISS:    4239250  HIT %:    29.2948  MISS %:    70.7052   MPKI: 21.1962
LLC LOAD      ACCESS:     124059  HIT:       1056  MISS:     123003  HIT %:   0.851208  MISS %:    99.1488   MPKI: 0.615015
LLC RFO       ACCESS:    1749678  HIT:        711  MISS:    1748967  HIT %:   0.040636  MISS %:    99.9594   MPKI: 8.74483
LLC PREFETCH  ACCESS:    2356059  HIT:      47250  MISS:    2308809  HIT %:    2.00547  MISS %:    97.9945   MPKI: 11.544
LLC WRITEBACK ACCESS:    1757223  HIT:    1707101  MISS:      50122  HIT %:    97.1477  MISS %:    2.85234   MPKI: 0.25061
LLC LOAD TRANSLATION ACCESS:       3770  HIT:        189  MISS:       3581  HIT %:    5.01326  MISS %:    94.9867   MPKI: 0.017905
LLC TRANSLATION FROM L1D PREFETCHER ACCESS:       4883  HIT:        115  MISS:       4768  HIT %:    2.35511  MISS %:    97.6449   MPKI: 0.02384
LLC PREFETCH  REQUESTED:          0  ISSUED:          0  USEFUL:       5020  USELESS:    9252650
LLC USEFUL LOAD PREFETCHES:       5020 PREFETCH ISSUED TO LOWER LEVEL:   32096442  ACCURACY: 0.0156404
LLC TIMELY PREFETCHES:       5020 LATE PREFETCHES: 0 DROPPED PREFETCHES: 0
LLC PREFETCHES SAME FILL-ORIGIN LEVEL: 0 DIFFERENT FILL-ORIGIN LEVEL: 0
LLC AVERAGE MISS LATENCY: 3027.23 cycles
LLC RQ	ACCESS:    7530344	FORWARD:          0	MERGED:          0	TO_CACHE:    7530344
LLC WQ	ACCESS:    7032075	FORWARD:          3	MERGED:          0	TO_CACHE:    7032075
LLC PQ	ACCESS:    9429223	FORWARD:          0	MERGED:          0	TO_CACHE:    9429220

LLC Dense regions hint to LLC: 0

RAW hits: 4990734
Loads Generated: 39480535
Loads sent to L1D: 34489799
Stores Generated: 38007547
Stores sent to L1D: 38007549
Major fault: 0 Minor fault: 83019
Allocated PAGES: 332076

CPU 1 cumulative IPC: 0.497961 instructions: 200000002 cycles: 401637715
ITLB TOTAL     ACCESS:   29237939  HIT:   29237919  MISS:         20  HIT %:    99.9999  MISS %: 6.84043e-05   MPKI: 0.0001
ITLB LOAD TRANSLATION ACCESS:   29237939  HIT:   29237919  MISS:         20  HIT %:    99.9999  MISS %: 6.84043e-05   MPKI: 0.0001
ITLB PREFETCH  REQUESTED:          0  ISSUED:          0  USEFUL:          0  USELESS:          0
ITLB USEFUL LOAD PREFETCHES:          0 PREFETCH ISSUED TO LOWER LEVEL:          0  ACCURACY: -nan
ITLB TIMELY PREFETCHES:          0 LATE PREFETCHES: 0 DROPPED PREFETCHES: 0
ITLB PREFETCHES SAME FILL-ORIGIN LEVEL: 0 DIFFERENT FILL-ORIGIN LEVEL: 0
ITLB AVERAGE MISS LATENCY: 278.65 cycles
ITLB RQ	ACCESS:   40875086	FORWARD:          0	MERGED:   11630408	TO_CACHE:   29244678

DTLB TOTAL     ACCESS:   40273100  HIT:   40207311  MISS:      65789  HIT %:    99.8366  MISS %:   0.163357   MPKI: 0.328945
DTLB LOAD TRANSLATION ACCESS:   40273100  HIT:   40207311  MISS:      65789  HIT %:    99.8366  MISS %:   0.163357   MPKI: 0.328945
DTLB PREFETCH  REQUESTED:          0  ISSUED:          0  USEFUL:          0  USELESS:          0
DTLB USEFUL LOAD PREFETCHES:          0 PREFETCH ISSUED TO LOWER LEVEL:          0  ACCURACY: -nan
DTLB TIMELY PREFETCHES:          0 LATE PREFETCHES: 0 DROPPED PREFETCHES: 0
DTLB PREFETCHES SAME FILL-ORIGIN LEVEL: 0 DIFFERENT FILL-ORIGIN LEVEL: 0
DTLB AVERAGE MISS LATENCY: 260.57 cycles
DTLB RQ	ACCESS:   54910959	FORWARD:          0	MERGED:   14458774	TO_CACHE:   40452185

STLB TOTAL     ACCESS:   13360398  HIT:   13295014  MISS:      65384  HIT %:    99.5106  MISS %:   0.489387   MPKI: 0.32692
STLB LOAD TRANSLATION ACCESS:      65809  HIT:        425  MISS:      65384  HIT %:   0.645808  MISS %:    99.3542   MPKI: 0.32692
STLB TRANSLATION FROM L1D PREFETCHER ACCESS:   13294589  HIT:   13294589  MISS:          0  HIT %:        100  MISS %:          0   MPKI: 0
STLB PREFETCH  REQUESTED:          0  ISSUED:          0  USEFUL:          8  USELESS:          0
STLB USEFUL LOAD PREFETCHES:          8 PREFETCH ISSUED TO LOWER LEVEL:          0  ACCURACY: inf
STLB TIMELY PREFETCHES:          8 LATE PREFETCHES: 7577 DROPPED PREFETCHES: 609737
STLB PREFETCHES SAME FILL-ORIGIN LEVEL: 0 DIFFERENT FILL-ORIGIN LEVEL: 0
STLB AVERAGE MISS LATENCY: 249.978 cycles
STLB RQ	ACCESS:   57716378	FORWARD:          0	MERGED:   43677850	TO_CACHE:   14038528

STLB Hit, L1D data hit: 0
STLB Hit, L2C data hit: 0
STLB Hit, LLC data hit: 0
STLB Hit, LLC data miss: 0
STLB STLB hints to L2: 0
L1D TOTAL     ACCESS:   68610056  HIT:   63996783  MISS:    4613273  HIT %:    93.2761  MISS %:     6.7239   MPKI: 23.0664
L1D LOAD      ACCESS:   17648151  HIT:   16290635  MISS:    1357516  HIT %:    92.3079  MISS %:    7.69211   MPKI: 6.78758
L1D RFO       ACCESS:   11815139  HIT:   10005152  MISS:    1809987  HIT %:    84.6808  MISS %:    15.3192   MPKI: 9.04993
L1D PREFETCH  ACCESS:   39146766  HIT:   37700996  MISS:    1445770  HIT %:    96.3068  MISS %:     3.6932   MPKI: 7.22885
L1D PREFETCH  REQUESTED:  141623065  ISSUED:  133892742  USEFUL:    1429332  USELESS:      16552
L1D USEFUL LOAD PREFETCHES:    1429332 PREFETCH ISSUED TO LOWER LEVEL:   12755710  ACCURACY: 11.2054
L1D TIMELY PREFETCHES:    1429332 LATE PREFETCHES: 144846 DROPPED PREFETCHES: 1840405
L1D PREFETCHES SAME FILL-ORIGIN LEVEL: 1590723 DIFFERENT FILL-ORIGIN LEVEL: 11164987
L1D AVERAGE MISS LATENCY: 507.744 cycles
L1D RQ	ACCESS:   34494986	FORWARD:          0	MERGED:   15401108	TO_CACHE:   19061417
L1D WQ	ACCESS:   38019354	FORWARD:      37376	MERGED:    2169812	TO_CACHE:   35849542
L1D PQ	ACCESS:   76242192	FORWARD:          0	MERGED:   18586727	TO_CACHE:   57650550

L1D UNIQUE REGIONS ACCESSED: 0
L1D REGIONS CONFLICTS: 0
L1D Cross Page Prefetch Requests: 7377147
L1D Same Page Prefetch Requests: 95686617
L1D ROI Sum of L1D PQ occupancy: 972796884
L1D PREFETCHES PUSHED FROM L2C: 0
L1I TOTAL     ACCESS:   40862677  HIT:   40862529  MISS:        148  HIT %:    99.9996  MISS %: 0.000362189   MPKI: 0.00074
L1I LOAD      ACCESS:   40862677  HIT:   40862529  MISS:        148  HIT %:    99.9996  MISS %: 0.000362189   MPKI: 0.00074
L1I PREFETCH  REQUESTED:          0  ISSUED:          0  USEFUL:          0  USELESS:          0
L1I USEFUL LOAD PREFETCHES:          0 PREFETCH ISSUED TO LOWER LEVEL:          0  ACCURACY: -nan
L1I TIMELY PREFETCHES:          0 LATE PREFETCHES: 0 DROPPED PREFETCHES: 0
L1I PREFETCHES SAME FILL-ORIGIN LEVEL: 0 DIFFERENT FILL-ORIGIN LEVEL: 0
L1I AVERAGE MISS LATENCY: 326.615 cycles
L1I RQ	ACCESS:   47925298	FORWARD:          0	MERGED:    7050212	TO_CACHE:   40875086

BTB TOTAL     ACCESS:   23429656  HIT:   23429507  MISS:        149  HIT %:    99.9994  MISS %: 0.000635946   MPKI: 0.000745
BTB BRANCH_DIRECT_JUMP	ACCESS:        470  HIT:        445  MISS:         25
BTB BRANCH_INDIRECT	ACCESS:          3  HIT:          0  MISS:          3
BTB BRANCH_CONDITIONAL	ACCESS:   23428238  HIT:   23428162  MISS:         76
BTB BRANCH_DIRECT_CALL	ACCESS:        472  HIT:        453  MISS:         19
BTB BRANCH_INDIRECT_CALL	ACCESS:          2  HIT:          0  MISS:          2
BTB BRANCH_RETURN	ACCESS:        471  HIT:        447  MISS:         24
BTB BRANCH_OTHER ACCESS:          0  HIT:          0  MISS:          0

L2C TOTAL     ACCESS:   12881190  HIT:    8525197  MISS:    4355993  HIT %:    66.1833  MISS %:    33.8167   MPKI: 21.78
L2C LOAD      ACCESS:    1212830  HIT:     806185  MISS:     406645  HIT %:    66.4714  MISS %:    33.5286   MPKI: 2.03322
L2C DATA LOAD MPKI: 2.03248
L2C INSTRUCTION LOAD MPKI: 0.00074
L2C RFO       ACCESS:    1809959  HIT:      59727  MISS:    1750232  HIT %:    3.29991  MISS %:    96.7001   MPKI: 8.75116
L2C PREFETCH  ACCESS:    7363781  HIT:    5289925  MISS:    2073856  HIT %:    71.8371  MISS %:    28.1629   MPKI: 10.3693
L2C DATA PREFETCH MPKI: 10.3693
L2C INSTRUCTION PREFETCH MPKI: 0
L2C WRITEBACK ACCESS:    1811893  HIT:    1695335  MISS:     116558  HIT %:    93.5671  MISS %:    6.43294   MPKI: 0.58279
L2C LOAD TRANSLATION ACCESS:      65391  HIT:      61590  MISS:       3801  HIT %:    94.1873  MISS %:    5.81273   MPKI: 0.019005
L2C TRANSLATION FROM L1D PREFETCHER ACCESS:     617336  HIT:     612435  MISS:       4901  HIT %:    99.2061  MISS %:   0.793895   MPKI: 0.024505
L2C PREFETCH  REQUESTED:          0  ISSUED:          0  USEFUL:     721777  USELESS:    1359778
L2C USEFUL LOAD PREFETCHES:     721777 PREFETCH ISSUED TO LOWER LEVEL:    2356752  ACCURACY: 30.6259
L2C TIMELY PREFETCHES:     721777 LATE PREFETCHES: 282570 DROPPED PREFETCHES: 0
L2C PREFETCHES SAME FILL-ORIGIN LEVEL: 1631747 DIFFERENT FILL-ORIGIN LEVEL: 0
L2C AVERAGE MISS LATENCY: 737.492 cycles
L2C RQ	ACCESS:    3706663	FORWARD:          0	MERGED:          0	TO_CACHE:    3706634
L2C WQ	ACCESS:    1812390	FORWARD:         32	MERGED:          0	TO_CACHE:    1812390
L2C PQ	ACCESS:   12754552	FORWARD:          0	MERGED:      90772	TO_CACHE:   12663777

L2C Instructions Evicting Data 146
L2C Translations Evicting Data 8690
L2C Data Evicting Data 4223199
L2C Instructions Evicting Instructions 0
L2C Translations Evicting Instructions 2
L2C Data Evicting Instructions 140
L2C Instructions Evicting Translations 2
L2C Translations Evicting Translations 11
L2C Data Evicting Translations 8457
L2C Dense regions hint from L2: 0
PSCL5 TOTAL     ACCESS:     682698  HIT:     682698  MISS:          0  HIT %:        100  MISS %:          0   MPKI: 0
PSCL5 LOAD TRANSLATION ACCESS:      65384  HIT:      65384  MISS:          0  HIT %:        100  MISS %:          0   MPKI: 0
PSCL5 TRANSLATION FROM L1D PREFETCHER ACCESS:     617314  HIT:     617314  MISS:          0  HIT %:        100  MISS %:          0   MPKI: 0
PSCL5 PREFETCH  REQUESTED:          0  ISSUED:          0  USEFUL:          0  USELESS:          0
PSCL5 USEFUL LOAD PREFETCHES:          0 PREFETCH ISSUED TO LOWER LEVEL:          0  ACCURACY: -nan
PSCL5 TIMELY PREFETCHES:          0 LATE PREFETCHES: 0 DROPPED PREFETCHES: 0
PSCL5 PREFETCHES SAME FILL-ORIGIN LEVEL: 0 DIFFERENT FILL-ORIGIN LEVEL: 0

PSCL4 TOTAL     ACCESS:     682698  HIT:     682697  MISS:          1  HIT %:    99.9999  MISS %: 0.000146478   MPKI: 5e-06
PSCL4 LOAD TRANSLATION ACCESS:      65384  HIT:      65383  MISS:          1  HIT %:    99.9985  MISS %: 0.00152943   MPKI: 5e-06
PSCL4 TRANSLATION FROM L1D PREFETCHER ACCESS:     617314  HIT:     617314  MISS:          0  HIT %:        100  MISS %:          0   MPKI: 0
PSCL4 PREFETCH  REQUESTED:          0  ISSUED:          0  USEFUL:          0  USELESS:          0
PSCL4 USEFUL LOAD PREFETCHES:          0 PREFETCH ISSUED TO LOWER LEVEL:          0  ACCURACY: -nan
PSCL4 TIMELY PREFETCHES:          0 LATE PREFETCHES: 0 DROPPED PREFETCHES: 0
PSCL4 PREFETCHES SAME FILL-ORIGIN LEVEL: 0 DIFFERENT FILL-ORIGIN LEVEL: 0

PSCL3 TOTAL     ACCESS:     682698  HIT:     682697  MISS:          1  HIT %:    99.9999  MISS %: 0.000146478   MPKI: 5e-06
PSCL3 LOAD TRANSLATION ACCESS:      65384  HIT:      65383  MISS:          1  HIT %:    99.9985  MISS %: 0.00152943   MPKI: 5e-06
PSCL3 TRANSLATION FROM L1D PREFETCHER ACCESS:     617314  HIT:     617314  MISS:          0  HIT %:        100  MISS %:          0   MPKI: 0
PSCL3 PREFETCH  REQUESTED:          0  ISSUED:          0  USEFUL:          0  USELESS:          0
PSCL3 USEFUL LOAD PREFETCHES:          0 PREFETCH ISSUED TO LOWER LEVEL:          0  ACCURACY: -nan
PSCL3 TIMELY PREFETCHES:          0 LATE PREFETCHES: 0 DROPPED PREFETCHES: 0
PSCL3 PREFETCHES SAME FILL-ORIGIN LEVEL: 0 DIFFERENT FILL-ORIGIN LEVEL: 0

PSCL2 TOTAL     ACCESS:     681687  HIT:     681532  MISS:        155  HIT %:    99.9773  MISS %:  0.0227377   MPKI: 0.000775
PSCL2 LOAD TRANSLATION ACCESS:      65384  HIT:      65229  MISS:        155  HIT %:    99.7629  MISS %:   0.237061   MPKI: 0.000775
PSCL2 TRANSLATION FROM L1D PREFETCHER ACCESS:     616303  HIT:     616303  MISS:          0  HIT %:        100  MISS %:          0   MPKI: 0
PSCL2 PREFETCH  REQUESTED:          0  ISSUED:          0  USEFUL:          0  USELESS:          0
PSCL2 USEFUL LOAD PREFETCHES:          0 PREFETCH ISSUED TO LOWER LEVEL:          0  ACCURACY: -nan
PSCL2 TIMELY PREFETCHES:          0 LATE PREFETCHES: 0 DROPPED PREFETCHES: 0
PSCL2 PREFETCHES SAME FILL-ORIGIN LEVEL: 0 DIFFERENT FILL-ORIGIN LEVEL: 0

LLC TOTAL     ACCESS:    5996891  HIT:    1757264  MISS:    4239627  HIT %:    29.3029  MISS %:    70.6971   MPKI: 21.1981
LLC LOAD      ACCESS:     124208  HIT:       1176  MISS:     123032  HIT %:   0.946799  MISS %:    99.0532   MPKI: 0.61516
LLC RFO       ACCESS:    1750226  HIT:        585  MISS:    1749641  HIT %:  0.0334243  MISS %:    99.9666   MPKI: 8.7482
LLC PREFETCH  ACCESS:    2356298  HIT:      48211  MISS:    2308087  HIT %:    2.04605  MISS %:     97.954   MPKI: 11.5404
LLC WRITEBACK ACCESS:    1757457  HIT:    1706939  MISS:      50518  HIT %:    97.1255  MISS %:    2.87449   MPKI: 0.25259
LLC LOAD TRANSLATION ACCESS:       3801  HIT:        225  MISS:       3576  HIT %:    5.91949  MISS %:    94.0805   MPKI: 0.01788
LLC TRANSLATION FROM L1D PREFETCHER ACCESS:       4901  HIT:        128  MISS:       4773  HIT %:    2.61171  MISS %:    97.3883   MPKI: 0.023865
LLC PREFETCH  REQUESTED:          0  ISSUED:          0  USEFUL:       5020  USELESS:    9252650
LLC USEFUL LOAD PREFETCHES:       5020 PREFETCH ISSUED TO LOWER LEVEL:   32096442  ACCURACY: 0.0156404
LLC TIMELY PREFETCHES:       5020 LATE PREFETCHES: 0 DROPPED PREFETCHES: 0
LLC PREFETCHES SAME FILL-ORIGIN LEVEL: 0 DIFFERENT FILL-ORIGIN LEVEL: 0
LLC AVERAGE MISS LATENCY: 3026.96 cycles
LLC RQ	ACCESS:    7530344	FORWARD:          0	MERGED:          0	TO_CACHE:    7530344
LLC WQ	ACCESS:    7032075	FORWARD:          3	MERGED:          0	TO_CACHE:    7032075
LLC PQ	ACCESS:    9429223	FORWARD:          0	MERGED:          0	TO_CACHE:    9429220

LLC Dense regions hint to LLC: 0

RAW hits: 4992132
Loads Generated: 39480538
Loads sent to L1D: 34488406
Stores Generated: 38007567
Stores sent to L1D: 38007546
Major fault: 0 Minor fault: 83019
Allocated PAGES: 332076

CPU 2 cumulative IPC: 0.498161 instructions: 200000000 cycles: 401476518
ITLB TOTAL     ACCESS:   29242628  HIT:   29242608  MISS:         20  HIT %:    99.9999  MISS %: 6.83933e-05   MPKI: 0.0001
ITLB LOAD TRANSLATION ACCESS:   29242628  HIT:   29242608  MISS:         20  HIT %:    99.9999  MISS %: 6.83933e-05   MPKI: 0.0001
ITLB PREFETCH  REQUESTED:          0  ISSUED:          0  USEFUL:          0  USELESS:          0
ITLB USEFUL LOAD PREFETCHES:          0 PREFETCH ISSUED TO LOWER LEVEL:          0  ACCURACY: -nan
ITLB TIMELY PREFETCHES:          0 LATE PREFETCHES: 0 DROPPED PREFETCHES: 0
ITLB PREFETCHES SAME FILL-ORIGIN LEVEL: 0 DIFFERENT FILL-ORIGIN LEVEL: 0
ITLB AVERAGE MISS LATENCY: 417.25 cycles
ITLB RQ	ACCESS:   40895004	FORWARD:          0	MERGED:   11634953	TO_CACHE:   29260051

DTLB TOTAL     ACCESS:   40281669  HIT:   40215880  MISS:      65789  HIT %:    99.8367  MISS %:   0.163322   MPKI: 0.328945
DTLB LOAD TRANSLATION ACCESS:   40281669  HIT:   40215880  MISS:      65789  HIT %:    99.8367  MISS %:   0.163322   MPKI: 0.328945
DTLB PREFETCH  REQUESTED:          0  ISSUED:          0  USEFUL:          0  USELESS:          0
DTLB USEFUL LOAD PREFETCHES:          0 PREFETCH ISSUED TO LOWER LEVEL:          0  ACCURACY: -nan
DTLB TIMELY PREFETCHES:          0 LATE PREFETCHES: 0 DROPPED PREFETCHES: 0
DTLB PREFETCHES SAME FILL-ORIGIN LEVEL: 0 DIFFERENT FILL-ORIGIN LEVEL: 0
DTLB AVERAGE MISS LATENCY: 262.068 cycles
DTLB RQ	ACCESS:   54940981	FORWARD:          0	MERGED:   14466260	TO_CACHE:   40474721

STLB TOTAL     ACCESS:   13456148  HIT:   13390765  MISS:      65383  HIT %:    99.5141  MISS %:   0.485897   MPKI: 0.326915
STLB LOAD TRANSLATION ACCESS:      65809  HIT:        426  MISS:      65383  HIT %:   0.647328  MISS %:    99.3527   MPKI: 0.326915
STLB TRANSLATION FROM L1D PREFETCHER ACCESS:   13390339  HIT:   13390339  MISS:          0  HIT %:        100  MISS %:          0   MPKI: 0
STLB PREFETCH  REQUESTED:          0  ISSUED:          0  USEFUL:         17  USELESS:          0
STLB USEFUL LOAD PREFETCHES:         17 PREFETCH ISSUED TO LOWER LEVEL:          0  ACCURACY: inf
STLB TIMELY PREFETCHES:         17 LATE PREFETCHES: 7555 DROPPED PREFETCHES: 611810
STLB PREFETCHES SAME FILL-ORIGIN LEVEL: 0 DIFFERENT FILL-ORIGIN LEVEL: 0
STLB AVERAGE MISS LATENCY: 251.686 cycles
STLB RQ	ACCESS:   58519272	FORWARD:          0	MERGED:   44380000	TO_CACHE:   14139272

STLB Hit, L1D data hit: 0
STLB Hit, L2C data hit: 0
STLB Hit, LLC data hit: 0
STLB Hit, LLC data miss: 0
STLB STLB hints to L2: 0
L1D TOTAL     ACCESS:   69604898  HIT:   64990246  MISS:    4614652  HIT %:    93.3702  MISS %:    6.62978   MPKI: 23.0733
L1D LOAD      ACCESS:   17665992  HIT:   16328279  MISS:    1337713  HIT %:    92.4278  MISS %:    7.57225   MPKI: 6.68856
L1D RFO       ACCESS:   11839313  HIT:   10029176  MISS:    1810137  HIT %:    84.7108  MISS %:    15.2892   MPKI: 9.05068
L1D PREFETCH  ACCESS:   40099593  HIT:   38632791  MISS:    1466802  HIT %:    96.3421  MISS %:     3.6579   MPKI: 7.33401
L1D PREFETCH  REQUESTED:  144219213  ISSUED:  135256416  USEFUL:    1449451  USELESS:      17657
L1D USEFUL LOAD PREFETCHES:    1449451 PREFETCH ISSUED TO LOWER LEVEL:   12626412  ACCURACY: 11.4795
L1D TIMELY PREFETCHES:    1449451 LATE PREFETCHES: 146610 DROPPED PREFETCHES: 1844601
L1D PREFETCHES SAME FILL-ORIGIN LEVEL: 1613706 DIFFERENT FILL-ORIGIN LEVEL: 11012706
L1D AVERAGE MISS LATENCY: 506.492 cycles
L1D RQ	ACCESS:   34506206	FORWARD:          0	MERGED:   15402148	TO_CACHE:   19071628
L1D WQ	ACCESS:   38037655	FORWARD:      34513	MERGED:    2168302	TO_CACHE:   35869353
L1D PQ	ACCESS:   76803003	FORWARD:          0	MERGED:   18347507	TO_CACHE:   58453413

L1D UNIQUE REGIONS ACCESSED: 0
L1D REGIONS CONFLICTS: 0
L1D Cross Page Prefetch Requests: 7352070
L1D Same Page Prefetch Requests: 96259321
L1D ROI Sum of L1D PQ occupancy: 985530409
L1D PREFETCHES PUSHED FROM L2C: 0
L1I TOTAL     ACCESS:   40863247  HIT:   40863099  MISS:        148  HIT %:    99.9996  MISS %: 0.000362184   MPKI: 0.00074
L1I LOAD      ACCESS:   40863247  HIT:   40863099  MISS:        148  HIT %:    99.9996  MISS %: 0.000362184   MPKI: 0.00074
L1I PREFETCH  REQUESTED:          0  ISSUED:          0  USEFUL:          0  USELESS:          0
L1I USEFUL LOAD PREFETCHES:          0 PREFETCH ISSUED TO LOWER LEVEL:          0  ACCURACY: -nan
L1I TIMELY PREFETCHES:          0 LATE PREFETCHES: 0 DROPPED PREFETCHES: 0
L1I PREFETCHES SAME FILL-ORIGIN LEVEL: 0 DIFFERENT FILL-ORIGIN LEVEL: 0
L1I AVERAGE MISS LATENCY: 354.23 cycles
L1I RQ	ACCESS:   47955456	FORWARD:          0	MERGED:    7060452	TO_CACHE:   40895004

BTB TOTAL     ACCESS:   23429615  HIT:   23429465  MISS:        150  HIT %:    99.9994  MISS %: 0.000640215   MPKI: 0.00075
BTB BRANCH_DIRECT_JUMP	ACCESS:        470  HIT:        445  MISS:         25
BTB BRANCH_INDIRECT	ACCESS:          3  HIT:          0  MISS:          3
BTB BRANCH_CONDITIONAL	ACCESS:   23428197  HIT:   23428120  MISS:         77
BTB BRANCH_DIRECT_CALL	ACCESS:        472  HIT:        453  MISS:         19
BTB BRANCH_INDIRECT_CALL	ACCESS:          2  HIT:          0  MISS:          2
BTB BRANCH_RETURN	ACCESS:        471  HIT:        447  MISS:         24
BTB BRANCH_OTHER ACCESS:          0  HIT:          0  MISS:          0

L2C TOTAL     ACCESS:   12705707  HIT:    8354388  MISS:    4351319  HIT %:     65.753  MISS %:     34.247   MPKI: 21.7566
L2C LOAD      ACCESS:    1191259  HIT:     786821  MISS:     404438  HIT %:    66.0495  MISS %:    33.9505   MPKI: 2.02219
L2C DATA LOAD MPKI: 2.02145
L2C INSTRUCTION LOAD MPKI: 0.00074
L2C RFO       ACCESS:    1810110  HIT:      61338  MISS:    1748772  HIT %:    3.38863  MISS %:    96.6114   MPKI: 8.74386
L2C PREFETCH  ACCESS:    7207793  HIT:    5130778  MISS:    2077015  HIT %:    71.1838  MISS %:    28.8162   MPKI: 10.3851
L2C DATA PREFETCH MPKI: 10.3851
L2C INSTRUCTION PREFETCH MPKI: 0
L2C WRITEBACK ACCESS:    1811789  HIT:    1699366  MISS:     112423  HIT %:    93.7949  MISS %:    6.20508   MPKI: 0.562115
L2C LOAD TRANSLATION ACCESS:      65390  HIT:      61614  MISS:       3776  HIT %:    94.2254  MISS %:    5.77458   MPKI: 0.01888
L2C TRANSLATION FROM L1D PREFETCHER ACCESS:     619366  HIT:     614471  MISS:       4895  HIT %:    99.2097  MISS %:   0.790324   MPKI: 0.024475
L2C PREFETCH  REQUESTED:          0  ISSUED:          0  USEFUL:     713660  USELESS:    1371339
L2C USEFUL LOAD PREFETCHES:     713660 PREFETCH ISSUED TO LOWER LEVEL:    2359655  ACCURACY: 30.2443
L2C TIMELY PREFETCHES:     713660 LATE PREFETCHES: 281730 DROPPED PREFETCHES: 0
L2C PREFETCHES SAME FILL-ORIGIN LEVEL: 1631789 DIFFERENT FILL-ORIGIN LEVEL: 0
L2C AVERAGE MISS LATENCY: 737.732 cycles
L2C RQ	ACCESS:    3689045	FORWARD:          0	MERGED:          0	TO_CACHE:    3689020
L2C WQ	ACCESS:    1813464	FORWARD:         30	MERGED:          0	TO_CACHE:    1813464
L2C PQ	ACCESS:   12626214	FORWARD:          0	MERGED:      86344	TO_CACHE:   12539865

L2C Instructions Evicting Data 148
L2C Translations Evicting Data 8669
L2C Data Evicting Data 4224652
L2C Instructions Evicting Instructions 0
L2C Translations Evicting Instructions 1
L2C Data Evicting Instructions 145
L2C Instructions Evicting Translations 0
L2C Translations Evicting Translations 7
L2C Data Evicting Translations 8419
L2C Dense regions hint from L2: 0
PSCL5 TOTAL     ACCESS:     684747  HIT:     684747  MISS:          0  HIT %:        100  MISS %:          0   MPKI: 0
PSCL5 LOAD TRANSLATION ACCESS:      65383  HIT:      65383  MISS:          0  HIT %:        100  MISS %:          0   MPKI: 0
PSCL5 TRANSLATION FROM L1D PREFETCHER ACCESS:     619364  HIT:     619364  MISS:          0  HIT %:        100  MISS %:          0   MPKI: 0
PSCL5 PREFETCH  REQUESTED:          0  ISSUED:          0  USEFUL:          0  USELESS:          0
PSCL5 USEFUL LOAD PREFETCHES:          0 PREFETCH ISSUED TO LOWER LEVEL:          0  ACCURACY: -nan
PSCL5 TIMELY PREFETCHES:          0 LATE PREFETCHES: 0 DROPPED PREFETCHES: 0
PSCL5 PREFETCHES SAME FILL-ORIGIN LEVEL: 0 DIFFERENT FILL-ORIGIN LEVEL: 0

PSCL4 TOTAL     ACCESS:     684747  HIT:     684746  MISS:          1  HIT %:    99.9999  MISS %: 0.000146039   MPKI: 5e-06
PSCL4 LOAD TRANSLATION ACCESS:      65383  HIT:      65382  MISS:          1  HIT %:    99.9985  MISS %: 0.00152945   MPKI: 5e-06
PSCL4 TRANSLATION FROM L1D PREFETCHER ACCESS:     619364  HIT:     619364  MISS:          0  HIT %:        100  MISS %:          0   MPKI: 0
PSCL4 PREFETCH  REQUESTED:          0  ISSUED:          0  USEFUL:          0  USELESS:          0
PSCL4 USEFUL LOAD PREFETCHES:          0 PREFETCH ISSUED TO LOWER LEVEL:          0  ACCURACY: -nan
PSCL4 TIMELY PREFETCHES:          0 LATE PREFETCHES: 0 DROPPED PREFETCHES: 0
PSCL4 PREFETCHES SAME FILL-ORIGIN LEVEL: 0 DIFFERENT FILL-ORIGIN LEVEL: 0

PSCL3 TOTAL     ACCESS:     684747  HIT:     684746  MISS:          1  HIT %:    99.9999  MISS %: 0.000146039   MPKI: 5e-06
PSCL3 LOAD TRANSLATION ACCESS:      65383  HIT:      65382  MISS:          1  HIT %:    99.9985  MISS %: 0.00152945   MPKI: 5e-06
PSCL3 TRANSLATION FROM L1D PREFETCHER ACCESS:     619364  HIT:     619364  MISS:          0  HIT %:        100  MISS %:          0   MPKI: 0
PSCL3 PREFETCH  REQUESTED:          0  ISSUED:          0  USEFUL:          0  USELESS:          0
PSCL3 USEFUL LOAD PREFETCHES:          0 PREFETCH ISSUED TO LOWER LEVEL:          0  ACCURACY: -nan
PSCL3 TIMELY PREFETCHES:          0 LATE PREFETCHES: 0 DROPPED PREFETCHES: 0
PSCL3 PREFETCHES SAME FILL-ORIGIN LEVEL: 0 DIFFERENT FILL-ORIGIN LEVEL: 0

PSCL2 TOTAL     ACCESS:     683774  HIT:     683619  MISS:        155  HIT %:    99.9773  MISS %:  0.0226683   MPKI: 0.000775
PSCL2 LOAD TRANSLATION ACCESS:      65383  HIT:      65228  MISS:        155  HIT %:    99.7629  MISS %:   0.237065   MPKI: 0.000775
PSCL2 TRANSLATION FROM L1D PREFETCHER ACCESS:     618391  HIT:     618391  MISS:          0  HIT %:        100  MISS %:          0   MPKI: 0
PSCL2 PREFETCH  REQUESTED:          0  ISSUED:          0  USEFUL:          0  USELESS:          0
PSCL2 USEFUL LOAD PREFETCHES:          0 PREFETCH ISSUED TO LOWER LEVEL:          0  ACCURACY: -nan
PSCL2 TIMELY PREFETCHES:          0 LATE PREFETCHES: 0 DROPPED PREFETCHES: 0
PSCL2 PREFETCHES SAME FILL-ORIGIN LEVEL: 0 DIFFERENT FILL-ORIGIN LEVEL: 0

LLC TOTAL     ACCESS:    5996517  HIT:    1757315  MISS:    4239202  HIT %:    29.3056  MISS %:    70.6944   MPKI: 21.196
LLC LOAD      ACCESS:     122978  HIT:       1026  MISS:     121952  HIT %:   0.834296  MISS %:    99.1657   MPKI: 0.60976
LLC RFO       ACCESS:    1748762  HIT:        739  MISS:    1748023  HIT %:  0.0422585  MISS %:    99.9577   MPKI: 8.74011
LLC PREFETCH  ACCESS:    2358483  HIT:      47718  MISS:    2310765  HIT %:    2.02325  MISS %:    97.9768   MPKI: 11.5538
LLC WRITEBACK ACCESS:    1757623  HIT:    1707509  MISS:      50114  HIT %:    97.1488  MISS %:    2.85124   MPKI: 0.25057
LLC LOAD TRANSLATION ACCESS:       3776  HIT:        207  MISS:       3569  HIT %:    5.48199  MISS %:     94.518   MPKI: 0.017845
LLC TRANSLATION FROM L1D PREFETCHER ACCESS:       4895  HIT:        116  MISS:       4779  HIT %:    2.36977  MISS %:    97.6302   MPKI: 0.023895
LLC PREFETCH  REQUESTED:          0  ISSUED:          0  USEFUL:       5020  USELESS:    9252650
LLC USEFUL LOAD PREFETCHES:       5020 PREFETCH ISSUED TO LOWER LEVEL:   32096442  ACCURACY: 0.0156404
LLC TIMELY PREFETCHES:       5020 LATE PREFETCHES: 0 DROPPED PREFETCHES: 0
LLC PREFETCHES SAME FILL-ORIGIN LEVEL: 0 DIFFERENT FILL-ORIGIN LEVEL: 0
LLC AVERAGE MISS LATENCY: 3027.26 cycles
LLC RQ	ACCESS:    7530344	FORWARD:          0	MERGED:          0	TO_CACHE:    7530344
LLC WQ	ACCESS:    7032075	FORWARD:          3	MERGED:          0	TO_CACHE:    7032075
LLC PQ	ACCESS:    9429223	FORWARD:          0	MERGED:          0	TO_CACHE:    9429220

LLC Dense regions hint to LLC: 0

RAW hits: 4991478
Loads Generated: 39480529
Loads sent to L1D: 34489051
Stores Generated: 38007545
Stores sent to L1D: 38007543
Major fault: 0 Minor fault: 83019
Allocated PAGES: 332076

CPU 3 cumulative IPC: 0.497803 instructions: 200000002 cycles: 401765355
ITLB TOTAL     ACCESS:   29241766  HIT:   29241746  MISS:         20  HIT %:    99.9999  MISS %: 6.83953e-05   MPKI: 0.0001
ITLB LOAD TRANSLATION ACCESS:   29241766  HIT:   29241746  MISS:         20  HIT %:    99.9999  MISS %: 6.83953e-05   MPKI: 0.0001
ITLB PREFETCH  REQUESTED:          0  ISSUED:          0  USEFUL:          0  USELESS:          0
ITLB USEFUL LOAD PREFETCHES:          0 PREFETCH ISSUED TO LOWER LEVEL:          0  ACCURACY: -nan
ITLB TIMELY PREFETCHES:          0 LATE PREFETCHES: 0 DROPPED PREFETCHES: 0
ITLB PREFETCHES SAME FILL-ORIGIN LEVEL: 0 DIFFERENT FILL-ORIGIN LEVEL: 0
ITLB AVERAGE MISS LATENCY: 369.1 cycles
ITLB RQ	ACCESS:   40864229	FORWARD:          0	MERGED:   11622161	TO_CACHE:   29242068

DTLB TOTAL     ACCESS:   40260567  HIT:   40194781  MISS:      65786  HIT %:    99.8366  MISS %:   0.163401   MPKI: 0.32893
DTLB LOAD TRANSLATION ACCESS:   40260567  HIT:   40194781  MISS:      65786  HIT %:    99.8366  MISS %:   0.163401   MPKI: 0.32893
DTLB PREFETCH  REQUESTED:          0  ISSUED:          0  USEFUL:          0  USELESS:          0
DTLB USEFUL LOAD PREFETCHES:          0 PREFETCH ISSUED TO LOWER LEVEL:          0  ACCURACY: -nan
DTLB TIMELY PREFETCHES:          0 LATE PREFETCHES: 0 DROPPED PREFETCHES: 0
DTLB PREFETCHES SAME FILL-ORIGIN LEVEL: 0 DIFFERENT FILL-ORIGIN LEVEL: 0
DTLB AVERAGE MISS LATENCY: 257.986 cycles
DTLB RQ	ACCESS:   54883496	FORWARD:          0	MERGED:   14453424	TO_CACHE:   40430072

STLB TOTAL     ACCESS:   13358199  HIT:   13292820  MISS:      65379  HIT %:    99.5106  MISS %:    0.48943   MPKI: 0.326895
STLB LOAD TRANSLATION ACCESS:      65806  HIT:        427  MISS:      65379  HIT %:   0.648877  MISS %:    99.3511   MPKI: 0.326895
STLB TRANSLATION FROM L1D PREFETCHER ACCESS:   13292393  HIT:   13292393  MISS:          0  HIT %:        100  MISS %:          0   MPKI: 0
STLB PREFETCH  REQUESTED:          0  ISSUED:          0  USEFUL:          0  USELESS:          0
STLB USEFUL LOAD PREFETCHES:          0 PREFETCH ISSUED TO LOWER LEVEL:          0  ACCURACY: -nan
STLB TIMELY PREFETCHES:          0 LATE PREFETCHES: 7547 DROPPED PREFETCHES: 613949
STLB PREFETCHES SAME FILL-ORIGIN LEVEL: 0 DIFFERENT FILL-ORIGIN LEVEL: 0
STLB AVERAGE MISS LATENCY: 247.534 cycles
STLB RQ	ACCESS:   57900700	FORWARD:          0	MERGED:   43861500	TO_CACHE:   14039200

STLB Hit, L1D data hit: 0
STLB Hit, L2C data hit: 0
STLB Hit, LLC data hit: 0
STLB Hit, LLC data miss: 0
STLB STLB hints to L2: 0
L1D TOTAL     ACCESS:   68578459  HIT:   63964627  MISS:    4613832  HIT %:    93.2722  MISS %:    6.72782   MPKI: 23.0692
L1D LOAD      ACCESS:   17650998  HIT:   16301036  MISS:    1349962  HIT %:    92.3519  MISS %:    7.64808   MPKI: 6.74981
L1D RFO       ACCESS:   11802598  HIT:    9992640  MISS:    1809958  HIT %:    84.6647  MISS %:    15.3353   MPKI: 9.04979
L1D PREFETCH  ACCESS:   39124863  HIT:   37670951  MISS:    1453912  HIT %:    96.2839  MISS %:    3.71608   MPKI: 7.26956
L1D PREFETCH  REQUESTED:  142317432  ISSUED:  134308806  USEFUL:    1436805  USELESS:      17123
L1D USEFUL LOAD PREFETCHES:    1436805 PREFETCH ISSUED TO LOWER LEVEL:   12971793  ACCURACY: 11.0764
L1D TIMELY PREFETCHES:    1436805 LATE PREFETCHES: 145092 DROPPED PREFETCHES: 1856457
L1D PREFETCHES SAME FILL-ORIGIN LEVEL: 1599011 DIFFERENT FILL-ORIGIN LEVEL: 11372782
L1D AVERAGE MISS LATENCY: 507.526 cycles
L1D RQ	ACCESS:   34487300	FORWARD:          0	MERGED:   15399638	TO_CACHE:   19055064
L1D WQ	ACCESS:   38007993	FORWARD:      36414	MERGED:    2179561	TO_CACHE:   35828432
L1D PQ	ACCESS:   76473917	FORWARD:          0	MERGED:   18635212	TO_CACHE:   57834889

L1D UNIQUE REGIONS ACCESSED: 0
L1D REGIONS CONFLICTS: 0
L1D Cross Page Prefetch Requests: 7481660
L1D Same Page Prefetch Requests: 95776311
L1D ROI Sum of L1D PQ occupancy: 978495498
L1D PREFETCHES PUSHED FROM L2C: 0
L1I TOTAL     ACCESS:   40863716  HIT:   40863568  MISS:        148  HIT %:    99.9996  MISS %: 0.000362179   MPKI: 0.00074
L1I LOAD      ACCESS:   40863716  HIT:   40863568  MISS:        148  HIT %:    99.9996  MISS %: 0.000362179   MPKI: 0.00074
L1I PREFETCH  REQUESTED:          0  ISSUED:          0  USEFUL:          0  USELESS:          0
L1I USEFUL LOAD PREFETCHES:          0 PREFETCH ISSUED TO LOWER LEVEL:          0  ACCURACY: -nan
L1I TIMELY PREFETCHES:          0 LATE PREFETCHES: 0 DROPPED PREFETCHES: 0
L1I PREFETCHES SAME FILL-ORIGIN LEVEL: 0 DIFFERENT FILL-ORIGIN LEVEL: 0
L1I AVERAGE MISS LATENCY: 337.885 cycles
L1I RQ	ACCESS:   47919570	FORWARD:          0	MERGED:    7055341	TO_CACHE:   40864229

BTB TOTAL     ACCESS:   23429596  HIT:   23429445  MISS:        151  HIT %:    99.9994  MISS %: 0.000644484   MPKI: 0.000755
BTB BRANCH_DIRECT_JUMP	ACCESS:        470  HIT:        445  MISS:         25
BTB BRANCH_INDIRECT	ACCESS:          3  HIT:          0  MISS:          3
BTB BRANCH_CONDITIONAL	ACCESS:   23428178  HIT:   23428100  MISS:         78
BTB BRANCH_DIRECT_CALL	ACCESS:        472  HIT:        453  MISS:         19
BTB BRANCH_INDIRECT_CALL	ACCESS:          2  HIT:          0  MISS:          2
BTB BRANCH_RETURN	ACCESS:        471  HIT:        447  MISS:         24
BTB BRANCH_OTHER ACCESS:          0  HIT:          0  MISS:          0

L2C TOTAL     ACCESS:   13084641  HIT:    8731508  MISS:    4353133  HIT %:     66.731  MISS %:     33.269   MPKI: 21.7657
L2C LOAD      ACCESS:    1205018  HIT:     799018  MISS:     406000  HIT %:    66.3076  MISS %:    33.6924   MPKI: 2.03
L2C DATA LOAD MPKI: 2.02926
L2C INSTRUCTION LOAD MPKI: 0.00074
L2C RFO       ACCESS:    1809936  HIT:      59875  MISS:    1750061  HIT %:    3.30813  MISS %:    96.6919   MPKI: 8.7503
L2C PREFETCH  ACCESS:    7570913  HIT:    5497342  MISS:    2073571  HIT %:    72.6113  MISS %:    27.3887   MPKI: 10.3679
L2C DATA PREFETCH MPKI: 10.3679
L2C INSTRUCTION PREFETCH MPKI: 0
L2C WRITEBACK ACCESS:    1811891  HIT:    1697089  MISS:     114802  HIT %:     93.664  MISS %:    6.33603   MPKI: 0.57401
L2C LOAD TRANSLATION ACCESS:      65382  HIT:      61563  MISS:       3819  HIT %:    94.1589  MISS %:    5.84106   MPKI: 0.019095
L2C TRANSLATION FROM L1D PREFETCHER ACCESS:     621501  HIT:     616621  MISS:       4880  HIT %:    99.2148  MISS %:   0.785196   MPKI: 0.0244
L2C PREFETCH  REQUESTED:          0  ISSUED:          0  USEFUL:     718306  USELESS:    1362855
L2C USEFUL LOAD PREFETCHES:     718306 PREFETCH ISSUED TO LOWER LEVEL:    2356757  ACCURACY: 30.4786
L2C TIMELY PREFETCHES:     718306 LATE PREFETCHES: 283172 DROPPED PREFETCHES: 0
L2C PREFETCHES SAME FILL-ORIGIN LEVEL: 1634574 DIFFERENT FILL-ORIGIN LEVEL: 0
L2C AVERAGE MISS LATENCY: 738.064 cycles
L2C RQ	ACCESS:    3701923	FORWARD:          0	MERGED:          0	TO_CACHE:    3701901
L2C WQ	ACCESS:    1811920	FORWARD:         28	MERGED:          0	TO_CACHE:    1811920
L2C PQ	ACCESS:   12970293	FORWARD:          0	MERGED:      87994	TO_CACHE:   12882293

L2C Instructions Evicting Data 148
L2C Translations Evicting Data 8696
L2C Data Evicting Data 4220920
L2C Instructions Evicting Instructions 0
L2C Translations Evicting Instructions 0
L2C Data Evicting Instructions 143
L2C Instructions Evicting Translations 0
L2C Translations Evicting Translations 11
L2C Data Evicting Translations 8487
L2C Dense regions hint from L2: 0
PSCL5 TOTAL     ACCESS:     686875  HIT:     686875  MISS:          0  HIT %:        100  MISS %:          0   MPKI: 0
PSCL5 LOAD TRANSLATION ACCESS:      65379  HIT:      65379  MISS:          0  HIT %:        100  MISS %:          0   MPKI: 0
PSCL5 TRANSLATION FROM L1D PREFETCHER ACCESS:     621496  HIT:     621496  MISS:          0  HIT %:        100  MISS %:          0   MPKI: 0
PSCL5 PREFETCH  REQUESTED:          0  ISSUED:          0  USEFUL:          0  USELESS:          0
PSCL5 USEFUL LOAD PREFETCHES:          0 PREFETCH ISSUED TO LOWER LEVEL:          0  ACCURACY: -nan
PSCL5 TIMELY PREFETCHES:          0 LATE PREFETCHES: 0 DROPPED PREFETCHES: 0
PSCL5 PREFETCHES SAME FILL-ORIGIN LEVEL: 0 DIFFERENT FILL-ORIGIN LEVEL: 0

PSCL4 TOTAL     ACCESS:     686875  HIT:     686874  MISS:          1  HIT %:    99.9999  MISS %: 0.000145587   MPKI: 5e-06
PSCL4 LOAD TRANSLATION ACCESS:      65379  HIT:      65378  MISS:          1  HIT %:    99.9985  MISS %: 0.00152954   MPKI: 5e-06
PSCL4 TRANSLATION FROM L1D PREFETCHER ACCESS:     621496  HIT:     621496  MISS:          0  HIT %:        100  MISS %:          0   MPKI: 0
PSCL4 PREFETCH  REQUESTED:          0  ISSUED:          0  USEFUL:          0  USELESS:          0
PSCL4 USEFUL LOAD PREFETCHES:          0 PREFETCH ISSUED TO LOWER LEVEL:          0  ACCURACY: -nan
PSCL4 TIMELY PREFETCHES:          0 LATE PREFETCHES: 0 DROPPED PREFETCHES: 0
PSCL4 PREFETCHES SAME FILL-ORIGIN LEVEL: 0 DIFFERENT FILL-ORIGIN LEVEL: 0

PSCL3 TOTAL     ACCESS:     686875  HIT:     686874  MISS:          1  HIT %:    99.9999  MISS %: 0.000145587   MPKI: 5e-06
PSCL3 LOAD TRANSLATION ACCESS:      65379  HIT:      65378  MISS:          1  HIT %:    99.9985  MISS %: 0.00152954   MPKI: 5e-06
PSCL3 TRANSLATION FROM L1D PREFETCHER ACCESS:     621496  HIT:     621496  MISS:          0  HIT %:        100  MISS %:          0   MPKI: 0
PSCL3 PREFETCH  REQUESTED:          0  ISSUED:          0  USEFUL:          0  USELESS:          0
PSCL3 USEFUL LOAD PREFETCHES:          0 PREFETCH ISSUED TO LOWER LEVEL:          0  ACCURACY: -nan
PSCL3 TIMELY PREFETCHES:          0 LATE PREFETCHES: 0 DROPPED PREFETCHES: 0
PSCL3 PREFETCHES SAME FILL-ORIGIN LEVEL: 0 DIFFERENT FILL-ORIGIN LEVEL: 0

PSCL2 TOTAL     ACCESS:     686058  HIT:     685907  MISS:        151  HIT %:     99.978  MISS %:  0.0220098   MPKI: 0.000755
PSCL2 LOAD TRANSLATION ACCESS:      65379  HIT:      65228  MISS:        151  HIT %:     99.769  MISS %:   0.230961   MPKI: 0.000755
PSCL2 TRANSLATION FROM L1D PREFETCHER ACCESS:     620679  HIT:     620679  MISS:          0  HIT %:        100  MISS %:          0   MPKI: 0
PSCL2 PREFETCH  REQUESTED:          0  ISSUED:          0  USEFUL:          0  USELESS:          0
PSCL2 USEFUL LOAD PREFETCHES:          0 PREFETCH ISSUED TO LOWER LEVEL:          0  ACCURACY: -nan
PSCL2 TIMELY PREFETCHES:          0 LATE PREFETCHES: 0 DROPPED PREFETCHES: 0
PSCL2 PREFETCHES SAME FILL-ORIGIN LEVEL: 0 DIFFERENT FILL-ORIGIN LEVEL: 0

LLC TOTAL     ACCESS:    5995802  HIT:    1755950  MISS:    4239852  HIT %:    29.2863  MISS %:    70.7137   MPKI: 21.1993
LLC LOAD      ACCESS:     122833  HIT:       1065  MISS:     121768  HIT %:   0.867031  MISS %:     99.133   MPKI: 0.60884
LLC RFO       ACCESS:    1750056  HIT:        539  MISS:    1749517  HIT %:   0.030799  MISS %:    99.9692   MPKI: 8.74758
LLC PREFETCH  ACCESS:    2356743  HIT:      47316  MISS:    2309427  HIT %:    2.00769  MISS %:    97.9923   MPKI: 11.5471
LLC WRITEBACK ACCESS:    1757471  HIT:    1706669  MISS:      50802  HIT %:    97.1094  MISS %:    2.89063   MPKI: 0.25401
LLC LOAD TRANSLATION ACCESS:       3819  HIT:        237  MISS:       3582  HIT %:    6.20581  MISS %:    93.7942   MPKI: 0.01791
LLC TRANSLATION FROM L1D PREFETCHER ACCESS:       4880  HIT:        124  MISS:       4756  HIT %:    2.54098  MISS %:     97.459   MPKI: 0.02378
LLC PREFETCH  REQUESTED:          0  ISSUED:          0  USEFUL:       5020  USELESS:    9252650
LLC USEFUL LOAD PREFETCHES:       5020 PREFETCH ISSUED TO LOWER LEVEL:   32096442  ACCURACY: 0.0156404
LLC TIMELY PREFETCHES:       5020 LATE PREFETCHES: 0 DROPPED PREFETCHES: 0
LLC PREFETCHES SAME FILL-ORIGIN LEVEL: 0 DIFFERENT FILL-ORIGIN LEVEL: 0
LLC AVERAGE MISS LATENCY: 3026.8 cycles
LLC RQ	ACCESS:    7530344	FORWARD:          0	MERGED:          0	TO_CACHE:    7530344
LLC WQ	ACCESS:    7032075	FORWARD:          3	MERGED:          0	TO_CACHE:    7032075
LLC PQ	ACCESS:    9429223	FORWARD:          0	MERGED:          0	TO_CACHE:    9429220

LLC Dense regions hint to LLC: 0

RAW hits: 4993516
Loads Generated: 39480514
Loads sent to L1D: 34486998
Stores Generated: 38007521
Stores sent to L1D: 38007547
Major fault: 0 Minor fault: 83019
Allocated PAGES: 332076

DRAM Statistics
 CHANNEL 0
 RQ ROW_BUFFER_HIT:    9344764  ROW_BUFFER_MISS:    7416040
 DBUS_CONGESTED:          1
 WQ ROW_BUFFER_HIT:    1182884  ROW_BUFFER_MISS:    5851286  FULL:        118

 AVG_CONGESTED_CYCLE: 5
 All warmup complete: 5
Channel 0 Bank busy for read cycles: 0
Channel 0 Bank busy for write cycles: 0
Channel 0
Rank 0
0banks busy for read cycles: 1055
0banks busy for write cycles: 0
1banks busy for read cycles: 798446
1banks busy for write cycles: 701498
2banks busy for read cycles: 1207786
2banks busy for write cycles: 701497
3banks busy for read cycles: 2364523
3banks busy for write cycles: 701497
4banks busy for read cycles: 4847149
4banks busy for write cycles: 701513
5banks busy for read cycles: 9416371
5banks busy for write cycles: 704810
6banks busy for read cycles: 17645370
6banks busy for write cycles: 991638
7banks busy for read cycles: 42132334
7banks busy for write cycles: 13086185
8banks busy for read cycles: 163143557
8banks busy for write cycles: 142648657

CPU 0 Branch Prediction Accuracy: 90.3188% MPKI: 11.3429 Average ROB Occupancy at Mispredict: 30.403
Branch types
NOT_BRANCH: 176567144 88.2836%
BRANCH_DIRECT_JUMP: 470 0.000235%
BRANCH_INDIRECT: 3 1.5e-06%
BRANCH_CONDITIONAL: 23431566 11.7158%
BRANCH_DIRECT_CALL: 472 0.000236%
BRANCH_INDIRECT_CALL: 2 1e-06%
BRANCH_RETURN: 471 0.0002355%
BRANCH_OTHER: 0 0%


CPU 1 Branch Prediction Accuracy: 90.3204% MPKI: 11.341 Average ROB Occupancy at Mispredict: 30.4755
Branch types
NOT_BRANCH: 176616704 88.2837%
BRANCH_DIRECT_JUMP: 470 0.000234934%
BRANCH_INDIRECT: 3 1.49958e-06%
BRANCH_CONDITIONAL: 23437946 11.7157%
BRANCH_DIRECT_CALL: 472 0.000235934%
BRANCH_INDIRECT_CALL: 2 9.99721e-07%
BRANCH_RETURN: 471 0.000235434%
BRANCH_OTHER: 0 0%


CPU 2 Branch Prediction Accuracy: 90.3223% MPKI: 11.3386 Average ROB Occupancy at Mispredict: 30.4782
Branch types
NOT_BRANCH: 176694286 88.2836%
BRANCH_DIRECT_JUMP: 470 0.000234831%
BRANCH_INDIRECT: 3 1.49892e-06%
BRANCH_CONDITIONAL: 23448015 11.7156%
BRANCH_DIRECT_CALL: 472 0.00023583%
BRANCH_INDIRECT_CALL: 2 9.99281e-07%
BRANCH_RETURN: 471 0.000235331%
BRANCH_OTHER: 0 0%


CPU 3 Branch Prediction Accuracy: 90.3188% MPKI: 11.343 Average ROB Occupancy at Mispredict: 30.4048
Branch types
NOT_BRANCH: 176568740 88.2833%
BRANCH_DIRECT_JUMP: 470 0.000234997%
BRANCH_INDIRECT: 3 1.49998e-06%
BRANCH_CONDITIONAL: 23431791 11.7158%
BRANCH_DIRECT_CALL: 472 0.000235997%
BRANCH_INDIRECT_CALL: 2 9.99988e-07%
BRANCH_RETURN: 471 0.000235497%
BRANCH_OTHER: 0 0%

DRAM PAGES: 1048576
Allocated PAGES: 332076
