
*** ChampSim Multicore Out-of-Order Simulator ***

Warmup Instructions: 50000000
Simulation Instructions: 200000000
Number of CPUs: 4
LLC sets: 8192
LLC ways: 16
Off-chip DRAM Size: 4096 MB Channels: 1 Width: 64-bit Data Rate: 6400 MT/s
CPU 0 runs ./traces/spec/621.wrf_s-6673B.champsimtrace.xz
.xz
CPU 1 runs ./traces/spec/621.wrf_s-6673B.champsimtrace.xz
.xz
CPU 2 runs ./traces/spec/621.wrf_s-6673B.champsimtrace.xz
.xz
CPU 3 runs ./traces/spec/621.wrf_s-6673B.champsimtrace.xz
.xz
BTB has LRU replacement policy
ITLB has LRU replacement policy
DTLB has LRU replacement policy
STLB has LRU replacement policy
L1I has LRU replacement policy
History Sets: 8
History Ways: 16
BERTI Size: 16
BERTI Stride Size: 8
L1D has LRU replacement policy
Initialize SRRIP state for L2C
Initialize DRRIP state for LLC
BTB has LRU replacement policy
ITLB has LRU replacement policy
DTLB has LRU replacement policy
STLB has LRU replacement policy
L1I has LRU replacement policy
History Sets: 8
History Ways: 16
BERTI Size: 16
BERTI Stride Size: 8
L1D has LRU replacement policy
Initialize SRRIP state for L2C
Initialize DRRIP state for LLC
BTB has LRU replacement policy
ITLB has LRU replacement policy
DTLB has LRU replacement policy
STLB has LRU replacement policy
L1I has LRU replacement policy
History Sets: 8
History Ways: 16
BERTI Size: 16
BERTI Stride Size: 8
L1D has LRU replacement policy
Initialize SRRIP state for L2C
Initialize DRRIP state for LLC
BTB has LRU replacement policy
ITLB has LRU replacement policy
DTLB has LRU replacement policy
STLB has LRU replacement policy
L1I has LRU replacement policy
History Sets: 8
History Ways: 16
BERTI Size: 16
BERTI Stride Size: 8
L1D has LRU replacement policy
Initialize SRRIP state for L2C
Initialize DRRIP state for LLC
Heartbeat CPU 1 instructions: 10000002 cycles: 3559105 heartbeat IPC: 2.8097 cumulative IPC: 2.8097 (Simulation time: 0 hr 4 min 4 sec) 
Heartbeat CPU 0 instructions: 10000002 cycles: 3559166 heartbeat IPC: 2.80965 cumulative IPC: 2.80965 (Simulation time: 0 hr 4 min 4 sec) 
Heartbeat CPU 2 instructions: 10000002 cycles: 3559349 heartbeat IPC: 2.8095 cumulative IPC: 2.8095 (Simulation time: 0 hr 4 min 4 sec) 
Heartbeat CPU 3 instructions: 10000002 cycles: 3559425 heartbeat IPC: 2.80944 cumulative IPC: 2.80944 (Simulation time: 0 hr 4 min 4 sec) 
Heartbeat CPU 0 instructions: 20000003 cycles: 6463840 heartbeat IPC: 3.44273 cumulative IPC: 3.09414 (Simulation time: 0 hr 7 min 29 sec) 
Heartbeat CPU 1 instructions: 20000003 cycles: 6463890 heartbeat IPC: 3.4426 cumulative IPC: 3.09411 (Simulation time: 0 hr 7 min 29 sec) 
Heartbeat CPU 2 instructions: 20000003 cycles: 6464293 heartbeat IPC: 3.44241 cumulative IPC: 3.09392 (Simulation time: 0 hr 7 min 29 sec) 
Heartbeat CPU 3 instructions: 20000003 cycles: 6464390 heartbeat IPC: 3.44238 cumulative IPC: 3.09387 (Simulation time: 0 hr 7 min 29 sec) 
Heartbeat CPU 0 instructions: 30000000 cycles: 9283851 heartbeat IPC: 3.54608 cumulative IPC: 3.23142 (Simulation time: 0 hr 10 min 47 sec) 
Heartbeat CPU 1 instructions: 30000000 cycles: 9283979 heartbeat IPC: 3.54599 cumulative IPC: 3.23137 (Simulation time: 0 hr 10 min 47 sec) 
Heartbeat CPU 2 instructions: 30000000 cycles: 9284284 heartbeat IPC: 3.54611 cumulative IPC: 3.23127 (Simulation time: 0 hr 10 min 47 sec) 
Heartbeat CPU 3 instructions: 30000000 cycles: 9284439 heartbeat IPC: 3.54604 cumulative IPC: 3.23121 (Simulation time: 0 hr 10 min 47 sec) 
Heartbeat CPU 0 instructions: 40000002 cycles: 12221461 heartbeat IPC: 3.40413 cumulative IPC: 3.27293 (Simulation time: 0 hr 14 min 2 sec) 
Heartbeat CPU 2 instructions: 40000002 cycles: 12221606 heartbeat IPC: 3.40446 cumulative IPC: 3.27289 (Simulation time: 0 hr 14 min 2 sec) 
Heartbeat CPU 1 instructions: 40000002 cycles: 12221731 heartbeat IPC: 3.40396 cumulative IPC: 3.27286 (Simulation time: 0 hr 14 min 2 sec) 
Heartbeat CPU 3 instructions: 40000002 cycles: 12225211 heartbeat IPC: 3.40047 cumulative IPC: 3.27193 (Simulation time: 0 hr 14 min 2 sec) 
Heartbeat CPU 1 instructions: 50000000 cycles: 15142868 heartbeat IPC: 3.42332 cumulative IPC: 3.30188 (Simulation time: 0 hr 16 min 52 sec) 
Heartbeat CPU 0 instructions: 50000000 cycles: 15143018 heartbeat IPC: 3.42283 cumulative IPC: 3.30185 (Simulation time: 0 hr 16 min 52 sec) 
Heartbeat CPU 2 instructions: 50000000 cycles: 15143881 heartbeat IPC: 3.42199 cumulative IPC: 3.30166 (Simulation time: 0 hr 16 min 53 sec) 
Heartbeat CPU 3 instructions: 50000000 cycles: 15146825 heartbeat IPC: 3.42277 cumulative IPC: 3.30102 (Simulation time: 0 hr 16 min 53 sec) 

Warmup complete CPU 0 instructions: 50012832 cycles: 15146826 (Simulation time: 0 hr 16 min 53 sec) 
Warmup complete CPU 1 instructions: 50013217 cycles: 15146826 (Simulation time: 0 hr 16 min 53 sec) 
Warmup complete CPU 2 instructions: 50010328 cycles: 15146826 (Simulation time: 0 hr 16 min 53 sec) 
Warmup complete CPU 3 instructions: 50000004 cycles: 15146826 (Simulation time: 0 hr 16 min 53 sec) 

Heartbeat CPU 1 instructions: 60000000 cycles: 35638810 heartbeat IPC: 0.487901 cumulative IPC: 0.487351 (Simulation time: 0 hr 21 min 40 sec) 
Heartbeat CPU 0 instructions: 60000000 cycles: 35721118 heartbeat IPC: 0.485954 cumulative IPC: 0.48542 (Simulation time: 0 hr 21 min 41 sec) 
Heartbeat CPU 3 instructions: 60000000 cycles: 35859356 heartbeat IPC: 0.4828 cumulative IPC: 0.482799 (Simulation time: 0 hr 21 min 43 sec) 
Heartbeat CPU 2 instructions: 60000000 cycles: 35872008 heartbeat IPC: 0.482436 cumulative IPC: 0.482006 (Simulation time: 0 hr 21 min 43 sec) 
Heartbeat CPU 0 instructions: 70000000 cycles: 67327402 heartbeat IPC: 0.316393 cumulative IPC: 0.383038 (Simulation time: 0 hr 27 min 26 sec) 
Heartbeat CPU 1 instructions: 70000000 cycles: 67485792 heartbeat IPC: 0.314002 cumulative IPC: 0.381872 (Simulation time: 0 hr 27 min 28 sec) 
Heartbeat CPU 2 instructions: 70000000 cycles: 67617136 heartbeat IPC: 0.315009 cumulative IPC: 0.380971 (Simulation time: 0 hr 27 min 29 sec) 
Heartbeat CPU 3 instructions: 70000000 cycles: 67892022 heartbeat IPC: 0.312181 cumulative IPC: 0.379181 (Simulation time: 0 hr 27 min 33 sec) 
Heartbeat CPU 0 instructions: 80000001 cycles: 86259844 heartbeat IPC: 0.528194 cumulative IPC: 0.421683 (Simulation time: 0 hr 32 min 6 sec) 
Heartbeat CPU 1 instructions: 80000001 cycles: 86312987 heartbeat IPC: 0.531147 cumulative IPC: 0.421363 (Simulation time: 0 hr 32 min 7 sec) 
Heartbeat CPU 2 instructions: 80000001 cycles: 86670414 heartbeat IPC: 0.524844 cumulative IPC: 0.419298 (Simulation time: 0 hr 32 min 13 sec) 
Heartbeat CPU 3 instructions: 80000001 cycles: 86822909 heartbeat IPC: 0.528237 cumulative IPC: 0.41855 (Simulation time: 0 hr 32 min 16 sec) 
Heartbeat CPU 1 instructions: 90000003 cycles: 107294106 heartbeat IPC: 0.476619 cumulative IPC: 0.433944 (Simulation time: 0 hr 37 min 15 sec) 
Heartbeat CPU 0 instructions: 90000003 cycles: 107344669 heartbeat IPC: 0.474275 cumulative IPC: 0.43371 (Simulation time: 0 hr 37 min 16 sec) 
Heartbeat CPU 2 instructions: 90000003 cycles: 107625048 heartbeat IPC: 0.477222 cumulative IPC: 0.432423 (Simulation time: 0 hr 37 min 21 sec) 
Heartbeat CPU 3 instructions: 90000003 cycles: 107845973 heartbeat IPC: 0.475668 cumulative IPC: 0.431503 (Simulation time: 0 hr 37 min 25 sec) 
Heartbeat CPU 0 instructions: 100000000 cycles: 153000872 heartbeat IPC: 0.219028 cumulative IPC: 0.362609 (Simulation time: 0 hr 44 min 29 sec) 
Heartbeat CPU 1 instructions: 100000000 cycles: 153059144 heartbeat IPC: 0.218507 cumulative IPC: 0.362453 (Simulation time: 0 hr 44 min 30 sec) 
Heartbeat CPU 2 instructions: 100000000 cycles: 154614559 heartbeat IPC: 0.212813 cumulative IPC: 0.358432 (Simulation time: 0 hr 45 min 0 sec) 
Heartbeat CPU 3 instructions: 100000000 cycles: 154905115 heartbeat IPC: 0.212499 cumulative IPC: 0.357761 (Simulation time: 0 hr 45 min 7 sec) 
Heartbeat CPU 0 instructions: 110000000 cycles: 161358928 heartbeat IPC: 1.19645 cumulative IPC: 0.410275 (Simulation time: 0 hr 48 min 42 sec) 
Heartbeat CPU 1 instructions: 110000000 cycles: 161467370 heartbeat IPC: 1.18931 cumulative IPC: 0.409968 (Simulation time: 0 hr 48 min 46 sec) 
Heartbeat CPU 2 instructions: 110000000 cycles: 162052482 heartbeat IPC: 1.34446 cumulative IPC: 0.408355 (Simulation time: 0 hr 49 min 7 sec) 
Heartbeat CPU 3 instructions: 110000000 cycles: 162149759 heartbeat IPC: 1.38033 cumulative IPC: 0.408155 (Simulation time: 0 hr 49 min 9 sec) 
Heartbeat CPU 0 instructions: 120000001 cycles: 172495234 heartbeat IPC: 0.897964 cumulative IPC: 0.444791 (Simulation time: 0 hr 52 min 58 sec) 
Heartbeat CPU 1 instructions: 120000001 cycles: 172675337 heartbeat IPC: 0.892223 cumulative IPC: 0.44428 (Simulation time: 0 hr 53 min 4 sec) 
Heartbeat CPU 2 instructions: 120000001 cycles: 173542032 heartbeat IPC: 0.870356 cumulative IPC: 0.441867 (Simulation time: 0 hr 53 min 34 sec) 
Heartbeat CPU 3 instructions: 120000001 cycles: 173724822 heartbeat IPC: 0.863926 cumulative IPC: 0.441423 (Simulation time: 0 hr 53 min 41 sec) 
Heartbeat CPU 0 instructions: 130000000 cycles: 178947773 heartbeat IPC: 1.54978 cumulative IPC: 0.488319 (Simulation time: 0 hr 56 min 16 sec) 
Heartbeat CPU 1 instructions: 130000000 cycles: 179041626 heartbeat IPC: 1.57077 cumulative IPC: 0.488037 (Simulation time: 0 hr 56 min 18 sec) 
Heartbeat CPU 2 instructions: 130000000 cycles: 179771502 heartbeat IPC: 1.60527 cumulative IPC: 0.485891 (Simulation time: 0 hr 56 min 37 sec) 
Heartbeat CPU 3 instructions: 130000000 cycles: 179947472 heartbeat IPC: 1.60703 cumulative IPC: 0.485435 (Simulation time: 0 hr 56 min 41 sec) 
Heartbeat CPU 0 instructions: 140000000 cycles: 189731631 heartbeat IPC: 0.927312 cumulative IPC: 0.515435 (Simulation time: 1 hr 0 min 5 sec) 
Heartbeat CPU 1 instructions: 140000000 cycles: 189867588 heartbeat IPC: 0.923705 cumulative IPC: 0.515032 (Simulation time: 1 hr 0 min 8 sec) 
Heartbeat CPU 2 instructions: 140000000 cycles: 191067670 heartbeat IPC: 0.885256 cumulative IPC: 0.511535 (Simulation time: 1 hr 0 min 47 sec) 
Heartbeat CPU 3 instructions: 140000000 cycles: 191127011 heartbeat IPC: 0.894491 cumulative IPC: 0.511421 (Simulation time: 1 hr 0 min 49 sec) 
Heartbeat CPU 0 instructions: 150000001 cycles: 196359663 heartbeat IPC: 1.50874 cumulative IPC: 0.551766 (Simulation time: 1 hr 3 min 6 sec) 
Heartbeat CPU 1 instructions: 150000001 cycles: 196510137 heartbeat IPC: 1.50545 cumulative IPC: 0.551307 (Simulation time: 1 hr 3 min 8 sec) 
Heartbeat CPU 2 instructions: 150000001 cycles: 198438283 heartbeat IPC: 1.35674 cumulative IPC: 0.545523 (Simulation time: 1 hr 3 min 39 sec) 
Heartbeat CPU 3 instructions: 150000002 cycles: 198567378 heartbeat IPC: 1.34402 cumulative IPC: 0.545195 (Simulation time: 1 hr 3 min 42 sec) 
Heartbeat CPU 0 instructions: 160000001 cycles: 206143368 heartbeat IPC: 1.02211 cumulative IPC: 0.575859 (Simulation time: 1 hr 7 min 1 sec) 
Heartbeat CPU 1 instructions: 160000001 cycles: 206273271 heartbeat IPC: 1.02426 cumulative IPC: 0.575466 (Simulation time: 1 hr 7 min 5 sec) 
Heartbeat CPU 2 instructions: 160000001 cycles: 207813171 heartbeat IPC: 1.06668 cumulative IPC: 0.570882 (Simulation time: 1 hr 7 min 46 sec) 
Heartbeat CPU 3 instructions: 160000001 cycles: 207863429 heartbeat IPC: 1.07573 cumulative IPC: 0.570786 (Simulation time: 1 hr 7 min 48 sec) 
Heartbeat CPU 0 instructions: 170000003 cycles: 215304122 heartbeat IPC: 1.09161 cumulative IPC: 0.599464 (Simulation time: 1 hr 10 min 25 sec) 
Heartbeat CPU 1 instructions: 170000003 cycles: 215553482 heartbeat IPC: 1.07756 cumulative IPC: 0.598717 (Simulation time: 1 hr 10 min 29 sec) 
Heartbeat CPU 3 instructions: 170000003 cycles: 218466876 heartbeat IPC: 0.94309 cumulative IPC: 0.590203 (Simulation time: 1 hr 11 min 39 sec) 
Heartbeat CPU 2 instructions: 170000003 cycles: 218591362 heartbeat IPC: 0.9278 cumulative IPC: 0.589791 (Simulation time: 1 hr 11 min 42 sec) 
Heartbeat CPU 0 instructions: 180000000 cycles: 222679861 heartbeat IPC: 1.3558 cumulative IPC: 0.626344 (Simulation time: 1 hr 13 min 56 sec) 
Heartbeat CPU 1 instructions: 180000000 cycles: 222785038 heartbeat IPC: 1.38283 cumulative IPC: 0.626025 (Simulation time: 1 hr 13 min 59 sec) 
Heartbeat CPU 3 instructions: 180000002 cycles: 224674601 heartbeat IPC: 1.6109 cumulative IPC: 0.620443 (Simulation time: 1 hr 14 min 58 sec) 
Heartbeat CPU 2 instructions: 180000000 cycles: 224766795 heartbeat IPC: 1.61932 cumulative IPC: 0.620121 (Simulation time: 1 hr 15 min 1 sec) 
Heartbeat CPU 0 instructions: 190000000 cycles: 235122714 heartbeat IPC: 0.803674 cumulative IPC: 0.636375 (Simulation time: 1 hr 18 min 25 sec) 
Heartbeat CPU 1 instructions: 190000000 cycles: 235346522 heartbeat IPC: 0.796084 cumulative IPC: 0.635727 (Simulation time: 1 hr 18 min 30 sec) 
Heartbeat CPU 3 instructions: 190000000 cycles: 237604326 heartbeat IPC: 0.773412 cumulative IPC: 0.629334 (Simulation time: 1 hr 19 min 25 sec) 
Heartbeat CPU 2 instructions: 190000000 cycles: 237756557 heartbeat IPC: 0.769837 cumulative IPC: 0.628857 (Simulation time: 1 hr 19 min 28 sec) 
Heartbeat CPU 0 instructions: 200000003 cycles: 246497394 heartbeat IPC: 0.879146 cumulative IPC: 0.648311 (Simulation time: 1 hr 23 min 6 sec) 
Heartbeat CPU 1 instructions: 200000003 cycles: 246738539 heartbeat IPC: 0.877808 cumulative IPC: 0.647635 (Simulation time: 1 hr 23 min 12 sec) 
Heartbeat CPU 3 instructions: 200000003 cycles: 248977794 heartbeat IPC: 0.87924 cumulative IPC: 0.641489 (Simulation time: 1 hr 24 min 12 sec) 
Heartbeat CPU 2 instructions: 200000003 cycles: 249127297 heartbeat IPC: 0.879451 cumulative IPC: 0.641035 (Simulation time: 1 hr 24 min 15 sec) 
Heartbeat CPU 0 instructions: 210000000 cycles: 257891141 heartbeat IPC: 0.877674 cumulative IPC: 0.659077 (Simulation time: 1 hr 28 min 7 sec) 
Heartbeat CPU 1 instructions: 210000000 cycles: 258121182 heartbeat IPC: 0.87853 cumulative IPC: 0.658451 (Simulation time: 1 hr 28 min 14 sec) 
Heartbeat CPU 3 instructions: 210000000 cycles: 260378555 heartbeat IPC: 0.877134 cumulative IPC: 0.652444 (Simulation time: 1 hr 29 min 12 sec) 
Heartbeat CPU 2 instructions: 210000000 cycles: 260508701 heartbeat IPC: 0.878626 cumulative IPC: 0.652056 (Simulation time: 1 hr 29 min 16 sec) 
Heartbeat CPU 0 instructions: 220000000 cycles: 269364702 heartbeat IPC: 0.871569 cumulative IPC: 0.668667 (Simulation time: 1 hr 32 min 59 sec) 
Heartbeat CPU 1 instructions: 220000000 cycles: 269699233 heartbeat IPC: 0.863703 cumulative IPC: 0.667787 (Simulation time: 1 hr 33 min 6 sec) 
Heartbeat CPU 3 instructions: 220000000 cycles: 272474447 heartbeat IPC: 0.826727 cumulative IPC: 0.660636 (Simulation time: 1 hr 33 min 52 sec) 
Heartbeat CPU 2 instructions: 220000000 cycles: 272715732 heartbeat IPC: 0.8192 cumulative IPC: 0.659977 (Simulation time: 1 hr 33 min 54 sec) 
Heartbeat CPU 0 instructions: 230000001 cycles: 298010559 heartbeat IPC: 0.349091 cumulative IPC: 0.636303 (Simulation time: 1 hr 38 min 49 sec) 
Heartbeat CPU 1 instructions: 230000001 cycles: 298096084 heartbeat IPC: 0.352152 cumulative IPC: 0.63611 (Simulation time: 1 hr 38 min 51 sec) 
Heartbeat CPU 3 instructions: 230000001 cycles: 299770988 heartbeat IPC: 0.366347 cumulative IPC: 0.632413 (Simulation time: 1 hr 39 min 12 sec) 
Heartbeat CPU 2 instructions: 230000001 cycles: 299866170 heartbeat IPC: 0.368318 cumulative IPC: 0.632165 (Simulation time: 1 hr 39 min 14 sec) 
Heartbeat CPU 1 instructions: 240000001 cycles: 331511826 heartbeat IPC: 0.29926 cumulative IPC: 0.60053 (Simulation time: 1 hr 46 min 17 sec) 
Heartbeat CPU 0 instructions: 240000001 cycles: 331765065 heartbeat IPC: 0.296257 cumulative IPC: 0.600051 (Simulation time: 1 hr 46 min 23 sec) 
Heartbeat CPU 3 instructions: 240000001 cycles: 336991239 heartbeat IPC: 0.268671 cumulative IPC: 0.590347 (Simulation time: 1 hr 48 min 41 sec) 
Heartbeat CPU 2 instructions: 240000001 cycles: 337129644 heartbeat IPC: 0.268359 cumulative IPC: 0.590062 (Simulation time: 1 hr 48 min 47 sec) 
Heartbeat CPU 1 instructions: 250000000 cycles: 338961437 heartbeat IPC: 1.34235 cumulative IPC: 0.617597 (Simulation time: 1 hr 49 min 57 sec) 
Finished CPU 1 instructions: 200000000 cycles: 323821650 cumulative IPC: 0.617624 (Simulation time: 1 hr 49 min 57 sec) 
Heartbeat CPU 0 instructions: 250000000 cycles: 339158674 heartbeat IPC: 1.35252 cumulative IPC: 0.617222 (Simulation time: 1 hr 50 min 6 sec) 
Finished CPU 0 instructions: 200000001 cycles: 324018660 cumulative IPC: 0.617248 (Simulation time: 1 hr 50 min 6 sec) 
Heartbeat CPU 3 instructions: 250000000 cycles: 342903303 heartbeat IPC: 1.69146 cumulative IPC: 0.610209 (Simulation time: 1 hr 52 min 39 sec) 
Finished CPU 3 instructions: 200000000 cycles: 327756478 cumulative IPC: 0.610209 (Simulation time: 1 hr 52 min 39 sec) 
Heartbeat CPU 2 instructions: 250000000 cycles: 342962043 heartbeat IPC: 1.71456 cumulative IPC: 0.610068 (Simulation time: 1 hr 52 min 42 sec) 
Finished CPU 2 instructions: 200000000 cycles: 327820679 cumulative IPC: 0.61009 (Simulation time: 1 hr 52 min 42 sec) 

ChampSim completed all CPUs

Total Simulation Statistics (not including warmup)

CPU 0 cumulative IPC: 0.628024 instructions: 205879158 cycles: 327820679
ITLB TOTAL     ACCESS:   31737873  HIT:   31737676  MISS:        197  HIT %:    99.9994  MISS %: 0.00062071   MPKI: 0.000956872
ITLB LOAD      ACCESS:          0  HIT:          0  MISS:          0  HIT %:       -nan  MISS %:       -nan   MPKI: 0
ITLB RFO       ACCESS:          0  HIT:          0  MISS:          0  HIT %:       -nan  MISS %:       -nan   MPKI: 0
ITLB PREFETCH  ACCESS:          0  HIT:          0  MISS:          0  HIT %:       -nan  MISS %:       -nan   MPKI: 0
ITLB WRITEBACK ACCESS:          0  HIT:          0  MISS:          0  HIT %:       -nan  MISS %:       -nan   MPKI: 0
DTLB TOTAL     ACCESS:   42397408  HIT:   42211480  MISS:     185928  HIT %:    99.5615  MISS %:   0.438536   MPKI: 0.903093
DTLB LOAD      ACCESS:          0  HIT:          0  MISS:          0  HIT %:       -nan  MISS %:       -nan   MPKI: 0
DTLB RFO       ACCESS:          0  HIT:          0  MISS:          0  HIT %:       -nan  MISS %:       -nan   MPKI: 0
DTLB PREFETCH  ACCESS:          0  HIT:          0  MISS:          0  HIT %:       -nan  MISS %:       -nan   MPKI: 0
DTLB WRITEBACK ACCESS:          0  HIT:          0  MISS:          0  HIT %:       -nan  MISS %:       -nan   MPKI: 0
STLB TOTAL     ACCESS:   10192707  HIT:   10164576  MISS:      28131  HIT %:     99.724  MISS %:   0.275991   MPKI: 0.136638
STLB LOAD      ACCESS:          0  HIT:          0  MISS:          0  HIT %:       -nan  MISS %:       -nan   MPKI: 0
STLB RFO       ACCESS:          0  HIT:          0  MISS:          0  HIT %:       -nan  MISS %:       -nan   MPKI: 0
STLB PREFETCH  ACCESS:          0  HIT:          0  MISS:          0  HIT %:       -nan  MISS %:       -nan   MPKI: 0
STLB WRITEBACK ACCESS:          0  HIT:          0  MISS:          0  HIT %:       -nan  MISS %:       -nan   MPKI: 0
L1D TOTAL     ACCESS:   75377249  HIT:   71621232  MISS:    3756017  HIT %:     95.017  MISS %:    4.98296   MPKI: 18.2438
L1D LOAD      ACCESS:   38189567  HIT:   36744550  MISS:    1445017  HIT %:    96.2162  MISS %:     3.7838   MPKI: 7.01876
L1D RFO       ACCESS:    8671646  HIT:    7956560  MISS:     715086  HIT %:    91.7537  MISS %:    8.24625   MPKI: 3.47333
L1D PREFETCH  ACCESS:   28516036  HIT:   26920122  MISS:    1595914  HIT %:    94.4035  MISS %:    5.59655   MPKI: 7.7517
L1D WRITEBACK ACCESS:          0  HIT:          0  MISS:          0  HIT %:       -nan  MISS %:       -nan   MPKI: 0
L1I TOTAL     ACCESS:   38838120  HIT:   38831833  MISS:       6287  HIT %:    99.9838  MISS %:  0.0161877   MPKI: 0.0305373
L1I LOAD      ACCESS:   38838120  HIT:   38831833  MISS:       6287  HIT %:    99.9838  MISS %:  0.0161877   MPKI: 0.0305373
L1I RFO       ACCESS:          0  HIT:          0  MISS:          0  HIT %:       -nan  MISS %:       -nan   MPKI: 0
L1I PREFETCH  ACCESS:          0  HIT:          0  MISS:          0  HIT %:       -nan  MISS %:       -nan   MPKI: 0
L1I WRITEBACK ACCESS:          0  HIT:          0  MISS:          0  HIT %:       -nan  MISS %:       -nan   MPKI: 0
L2C TOTAL     ACCESS:    9929094  HIT:    6894576  MISS:    3034518  HIT %:    69.4381  MISS %:    30.5619   MPKI: 14.7393
L2C LOAD      ACCESS:    1334972  HIT:     815839  MISS:     519133  HIT %:    61.1128  MISS %:    38.8872   MPKI: 2.52154
L2C RFO       ACCESS:     714985  HIT:     146676  MISS:     568309  HIT %:    20.5146  MISS %:    79.4854   MPKI: 2.7604
L2C PREFETCH  ACCESS:    6409405  HIT:    4606688  MISS:    1802717  HIT %:    71.8739  MISS %:    28.1261   MPKI: 8.75619
L2C WRITEBACK ACCESS:    1401687  HIT:    1262684  MISS:     139003  HIT %:    90.0832  MISS %:    9.91684   MPKI: 0.675168
PSCL5 TOTAL     ACCESS:      67799  HIT:      67799  MISS:          0  HIT %:        100  MISS %:          0   MPKI: 0
PSCL5 LOAD      ACCESS:          0  HIT:          0  MISS:          0  HIT %:       -nan  MISS %:       -nan   MPKI: 0
PSCL5 RFO       ACCESS:          0  HIT:          0  MISS:          0  HIT %:       -nan  MISS %:       -nan   MPKI: 0
PSCL5 PREFETCH  ACCESS:          0  HIT:          0  MISS:          0  HIT %:       -nan  MISS %:       -nan   MPKI: 0
PSCL5 WRITEBACK ACCESS:          0  HIT:          0  MISS:          0  HIT %:       -nan  MISS %:       -nan   MPKI: 0
PSCL4 TOTAL     ACCESS:      67799  HIT:      67799  MISS:          0  HIT %:        100  MISS %:          0   MPKI: 0
PSCL4 LOAD      ACCESS:          0  HIT:          0  MISS:          0  HIT %:       -nan  MISS %:       -nan   MPKI: 0
PSCL4 RFO       ACCESS:          0  HIT:          0  MISS:          0  HIT %:       -nan  MISS %:       -nan   MPKI: 0
PSCL4 PREFETCH  ACCESS:          0  HIT:          0  MISS:          0  HIT %:       -nan  MISS %:       -nan   MPKI: 0
PSCL4 WRITEBACK ACCESS:          0  HIT:          0  MISS:          0  HIT %:       -nan  MISS %:       -nan   MPKI: 0
PSCL3 TOTAL     ACCESS:      67799  HIT:      67799  MISS:          0  HIT %:        100  MISS %:          0   MPKI: 0
PSCL3 LOAD      ACCESS:          0  HIT:          0  MISS:          0  HIT %:       -nan  MISS %:       -nan   MPKI: 0
PSCL3 RFO       ACCESS:          0  HIT:          0  MISS:          0  HIT %:       -nan  MISS %:       -nan   MPKI: 0
PSCL3 PREFETCH  ACCESS:          0  HIT:          0  MISS:          0  HIT %:       -nan  MISS %:       -nan   MPKI: 0
PSCL3 WRITEBACK ACCESS:          0  HIT:          0  MISS:          0  HIT %:       -nan  MISS %:       -nan   MPKI: 0
PSCL2 TOTAL     ACCESS:      67722  HIT:      67516  MISS:        206  HIT %:    99.6958  MISS %:   0.304185   MPKI: 0.00100059
PSCL2 LOAD      ACCESS:          0  HIT:          0  MISS:          0  HIT %:       -nan  MISS %:       -nan   MPKI: 0
PSCL2 RFO       ACCESS:          0  HIT:          0  MISS:          0  HIT %:       -nan  MISS %:       -nan   MPKI: 0
PSCL2 PREFETCH  ACCESS:          0  HIT:          0  MISS:          0  HIT %:       -nan  MISS %:       -nan   MPKI: 0
PSCL2 WRITEBACK ACCESS:          0  HIT:          0  MISS:          0  HIT %:       -nan  MISS %:       -nan   MPKI: 0
LLC TOTAL     ACCESS:    4041066  HIT:    1623509  MISS:    2417557  HIT %:    40.1753  MISS %:    59.8247   MPKI: 11.7426
LLC LOAD      ACCESS:     288745  HIT:      31191  MISS:     257554  HIT %:    10.8023  MISS %:    89.1977   MPKI: 1.251
LLC RFO       ACCESS:     564736  HIT:     102605  MISS:     462131  HIT %:    18.1687  MISS %:    81.8313   MPKI: 2.24467
LLC PREFETCH  ACCESS:    2036667  HIT:     392499  MISS:    1644168  HIT %:    19.2716  MISS %:    80.7284   MPKI: 7.98608
LLC WRITEBACK ACCESS:    1145562  HIT:    1096523  MISS:      49039  HIT %:    95.7192  MISS %:    4.28078   MPKI: 0.238193

RAW hits: 325245
Loads Generated: 61327969
Loads sent to L1D: 61002723
Stores Generated: 11019776
Stores sent to L1D: 11019776

CPU 1 cumulative IPC: 0.628996 instructions: 206198024 cycles: 327820679
ITLB TOTAL     ACCESS:   31772305  HIT:   31772108  MISS:        197  HIT %:    99.9994  MISS %: 0.000620037   MPKI: 0.000955392
ITLB LOAD      ACCESS:          0  HIT:          0  MISS:          0  HIT %:       -nan  MISS %:       -nan   MPKI: 0
ITLB RFO       ACCESS:          0  HIT:          0  MISS:          0  HIT %:       -nan  MISS %:       -nan   MPKI: 0
ITLB PREFETCH  ACCESS:          0  HIT:          0  MISS:          0  HIT %:       -nan  MISS %:       -nan   MPKI: 0
ITLB WRITEBACK ACCESS:          0  HIT:          0  MISS:          0  HIT %:       -nan  MISS %:       -nan   MPKI: 0
DTLB TOTAL     ACCESS:   42474175  HIT:   42288149  MISS:     186026  HIT %:     99.562  MISS %:   0.437974   MPKI: 0.902172
DTLB LOAD      ACCESS:          0  HIT:          0  MISS:          0  HIT %:       -nan  MISS %:       -nan   MPKI: 0
DTLB RFO       ACCESS:          0  HIT:          0  MISS:          0  HIT %:       -nan  MISS %:       -nan   MPKI: 0
DTLB PREFETCH  ACCESS:          0  HIT:          0  MISS:          0  HIT %:       -nan  MISS %:       -nan   MPKI: 0
DTLB WRITEBACK ACCESS:          0  HIT:          0  MISS:          0  HIT %:       -nan  MISS %:       -nan   MPKI: 0
STLB TOTAL     ACCESS:   10248387  HIT:   10220219  MISS:      28168  HIT %:    99.7251  MISS %:   0.274853   MPKI: 0.136607
STLB LOAD      ACCESS:          0  HIT:          0  MISS:          0  HIT %:       -nan  MISS %:       -nan   MPKI: 0
STLB RFO       ACCESS:          0  HIT:          0  MISS:          0  HIT %:       -nan  MISS %:       -nan   MPKI: 0
STLB PREFETCH  ACCESS:          0  HIT:          0  MISS:          0  HIT %:       -nan  MISS %:       -nan   MPKI: 0
STLB WRITEBACK ACCESS:          0  HIT:          0  MISS:          0  HIT %:       -nan  MISS %:       -nan   MPKI: 0
L1D TOTAL     ACCESS:   75688981  HIT:   71926059  MISS:    3762922  HIT %:    95.0284  MISS %:    4.97156   MPKI: 18.2491
L1D LOAD      ACCESS:   38265089  HIT:   36821599  MISS:    1443490  HIT %:    96.2277  MISS %:    3.77234   MPKI: 7.0005
L1D RFO       ACCESS:    8684732  HIT:    7969374  MISS:     715358  HIT %:     91.763  MISS %:    8.23696   MPKI: 3.46928
L1D PREFETCH  ACCESS:   28739160  HIT:   27135086  MISS:    1604074  HIT %:    94.4185  MISS %:    5.58149   MPKI: 7.77929
L1D WRITEBACK ACCESS:          0  HIT:          0  MISS:          0  HIT %:       -nan  MISS %:       -nan   MPKI: 0
L1I TOTAL     ACCESS:   38873900  HIT:   38867613  MISS:       6287  HIT %:    99.9838  MISS %:  0.0161728   MPKI: 0.0304901
L1I LOAD      ACCESS:   38873900  HIT:   38867613  MISS:       6287  HIT %:    99.9838  MISS %:  0.0161728   MPKI: 0.0304901
L1I RFO       ACCESS:          0  HIT:          0  MISS:          0  HIT %:       -nan  MISS %:       -nan   MPKI: 0
L1I PREFETCH  ACCESS:          0  HIT:          0  MISS:          0  HIT %:       -nan  MISS %:       -nan   MPKI: 0
L1I WRITEBACK ACCESS:          0  HIT:          0  MISS:          0  HIT %:       -nan  MISS %:       -nan   MPKI: 0
L2C TOTAL     ACCESS:    9879278  HIT:    6846098  MISS:    3033180  HIT %:    69.2976  MISS %:    30.7024   MPKI: 14.71
L2C LOAD      ACCESS:    1335018  HIT:     815946  MISS:     519072  HIT %:    61.1187  MISS %:    38.8813   MPKI: 2.51735
L2C RFO       ACCESS:     715213  HIT:     146847  MISS:     568366  HIT %:    20.5319  MISS %:    79.4681   MPKI: 2.75641
L2C PREFETCH  ACCESS:    6360026  HIT:    4553582  MISS:    1806444  HIT %:    71.5969  MISS %:    28.4031   MPKI: 8.76072
L2C WRITEBACK ACCESS:    1402535  HIT:    1268669  MISS:     133866  HIT %:    90.4554  MISS %:    9.54457   MPKI: 0.649211
PSCL5 TOTAL     ACCESS:      66265  HIT:      66265  MISS:          0  HIT %:        100  MISS %:          0   MPKI: 0
PSCL5 LOAD      ACCESS:          0  HIT:          0  MISS:          0  HIT %:       -nan  MISS %:       -nan   MPKI: 0
PSCL5 RFO       ACCESS:          0  HIT:          0  MISS:          0  HIT %:       -nan  MISS %:       -nan   MPKI: 0
PSCL5 PREFETCH  ACCESS:          0  HIT:          0  MISS:          0  HIT %:       -nan  MISS %:       -nan   MPKI: 0
PSCL5 WRITEBACK ACCESS:          0  HIT:          0  MISS:          0  HIT %:       -nan  MISS %:       -nan   MPKI: 0
PSCL4 TOTAL     ACCESS:      66265  HIT:      66265  MISS:          0  HIT %:        100  MISS %:          0   MPKI: 0
PSCL4 LOAD      ACCESS:          0  HIT:          0  MISS:          0  HIT %:       -nan  MISS %:       -nan   MPKI: 0
PSCL4 RFO       ACCESS:          0  HIT:          0  MISS:          0  HIT %:       -nan  MISS %:       -nan   MPKI: 0
PSCL4 PREFETCH  ACCESS:          0  HIT:          0  MISS:          0  HIT %:       -nan  MISS %:       -nan   MPKI: 0
PSCL4 WRITEBACK ACCESS:          0  HIT:          0  MISS:          0  HIT %:       -nan  MISS %:       -nan   MPKI: 0
PSCL3 TOTAL     ACCESS:      66265  HIT:      66265  MISS:          0  HIT %:        100  MISS %:          0   MPKI: 0
PSCL3 LOAD      ACCESS:          0  HIT:          0  MISS:          0  HIT %:       -nan  MISS %:       -nan   MPKI: 0
PSCL3 RFO       ACCESS:          0  HIT:          0  MISS:          0  HIT %:       -nan  MISS %:       -nan   MPKI: 0
PSCL3 PREFETCH  ACCESS:          0  HIT:          0  MISS:          0  HIT %:       -nan  MISS %:       -nan   MPKI: 0
PSCL3 WRITEBACK ACCESS:          0  HIT:          0  MISS:          0  HIT %:       -nan  MISS %:       -nan   MPKI: 0
PSCL2 TOTAL     ACCESS:      66214  HIT:      66010  MISS:        204  HIT %:    99.6919  MISS %:   0.308092   MPKI: 0.00098934
PSCL2 LOAD      ACCESS:          0  HIT:          0  MISS:          0  HIT %:       -nan  MISS %:       -nan   MPKI: 0
PSCL2 RFO       ACCESS:          0  HIT:          0  MISS:          0  HIT %:       -nan  MISS %:       -nan   MPKI: 0
PSCL2 PREFETCH  ACCESS:          0  HIT:          0  MISS:          0  HIT %:       -nan  MISS %:       -nan   MPKI: 0
PSCL2 WRITEBACK ACCESS:          0  HIT:          0  MISS:          0  HIT %:       -nan  MISS %:       -nan   MPKI: 0
LLC TOTAL     ACCESS:    4045293  HIT:    1633806  MISS:    2411487  HIT %:    40.3878  MISS %:    59.6122   MPKI: 11.695
LLC LOAD      ACCESS:     288496  HIT:      30993  MISS:     257503  HIT %:     10.743  MISS %:     89.257   MPKI: 1.24881
LLC RFO       ACCESS:     564656  HIT:     102805  MISS:     461851  HIT %:    18.2067  MISS %:    81.7933   MPKI: 2.23984
LLC PREFETCH  ACCESS:    2040718  HIT:     399942  MISS:    1640776  HIT %:    19.5981  MISS %:    80.4019   MPKI: 7.95728
LLC WRITEBACK ACCESS:    1145991  HIT:    1099302  MISS:      46689  HIT %:    95.9259  MISS %:    4.07412   MPKI: 0.226428

RAW hits: 326537
Loads Generated: 61448435
Loads sent to L1D: 61121922
Stores Generated: 11027993
Stores sent to L1D: 11027992

CPU 2 cumulative IPC: 0.61009 instructions: 200000000 cycles: 327820679
ITLB TOTAL     ACCESS:   31047347  HIT:   31047156  MISS:        191  HIT %:    99.9994  MISS %: 0.000615189   MPKI: 0.000955
ITLB LOAD      ACCESS:          0  HIT:          0  MISS:          0  HIT %:       -nan  MISS %:       -nan   MPKI: 0
ITLB RFO       ACCESS:          0  HIT:          0  MISS:          0  HIT %:       -nan  MISS %:       -nan   MPKI: 0
ITLB PREFETCH  ACCESS:          0  HIT:          0  MISS:          0  HIT %:       -nan  MISS %:       -nan   MPKI: 0
ITLB WRITEBACK ACCESS:          0  HIT:          0  MISS:          0  HIT %:       -nan  MISS %:       -nan   MPKI: 0
DTLB TOTAL     ACCESS:   40864064  HIT:   40678529  MISS:     185535  HIT %:     99.546  MISS %:    0.45403   MPKI: 0.927675
DTLB LOAD      ACCESS:          0  HIT:          0  MISS:          0  HIT %:       -nan  MISS %:       -nan   MPKI: 0
DTLB RFO       ACCESS:          0  HIT:          0  MISS:          0  HIT %:       -nan  MISS %:       -nan   MPKI: 0
DTLB PREFETCH  ACCESS:          0  HIT:          0  MISS:          0  HIT %:       -nan  MISS %:       -nan   MPKI: 0
DTLB WRITEBACK ACCESS:          0  HIT:          0  MISS:          0  HIT %:       -nan  MISS %:       -nan   MPKI: 0
STLB TOTAL     ACCESS:    9681210  HIT:    9653339  MISS:      27871  HIT %:    99.7121  MISS %:   0.287888   MPKI: 0.139355
STLB LOAD      ACCESS:          0  HIT:          0  MISS:          0  HIT %:       -nan  MISS %:       -nan   MPKI: 0
STLB RFO       ACCESS:          0  HIT:          0  MISS:          0  HIT %:       -nan  MISS %:       -nan   MPKI: 0
STLB PREFETCH  ACCESS:          0  HIT:          0  MISS:          0  HIT %:       -nan  MISS %:       -nan   MPKI: 0
STLB WRITEBACK ACCESS:          0  HIT:          0  MISS:          0  HIT %:       -nan  MISS %:       -nan   MPKI: 0
L1D TOTAL     ACCESS:   72573669  HIT:   68900409  MISS:    3673260  HIT %:    94.9386  MISS %:    5.06142   MPKI: 18.3663
L1D LOAD      ACCESS:   36659452  HIT:   35244265  MISS:    1415187  HIT %:    96.1396  MISS %:    3.86036   MPKI: 7.07594
L1D RFO       ACCESS:    8502039  HIT:    7790451  MISS:     711588  HIT %:    91.6304  MISS %:    8.36962   MPKI: 3.55794
L1D PREFETCH  ACCESS:   27412178  HIT:   25865693  MISS:    1546485  HIT %:    94.3584  MISS %:     5.6416   MPKI: 7.73243
L1D WRITEBACK ACCESS:          0  HIT:          0  MISS:          0  HIT %:       -nan  MISS %:       -nan   MPKI: 0
L1I TOTAL     ACCESS:   38100148  HIT:   38093985  MISS:       6163  HIT %:    99.9838  MISS %:  0.0161758   MPKI: 0.030815
L1I LOAD      ACCESS:   38100148  HIT:   38093985  MISS:       6163  HIT %:    99.9838  MISS %:  0.0161758   MPKI: 0.030815
L1I RFO       ACCESS:          0  HIT:          0  MISS:          0  HIT %:       -nan  MISS %:       -nan   MPKI: 0
L1I PREFETCH  ACCESS:          0  HIT:          0  MISS:          0  HIT %:       -nan  MISS %:       -nan   MPKI: 0
L1I WRITEBACK ACCESS:          0  HIT:          0  MISS:          0  HIT %:       -nan  MISS %:       -nan   MPKI: 0
L2C TOTAL     ACCESS:    9664881  HIT:    6665233  MISS:    2999648  HIT %:    68.9634  MISS %:    31.0366   MPKI: 14.9982
L2C LOAD      ACCESS:    1303079  HIT:     797312  MISS:     505767  HIT %:    61.1868  MISS %:    38.8132   MPKI: 2.52883
L2C RFO       ACCESS:     711470  HIT:     142903  MISS:     568567  HIT %:    20.0856  MISS %:    79.9144   MPKI: 2.84284
L2C PREFETCH  ACCESS:    6197672  HIT:    4413656  MISS:    1784016  HIT %:    71.2147  MISS %:    28.7853   MPKI: 8.92008
L2C WRITEBACK ACCESS:    1386008  HIT:    1250029  MISS:     135979  HIT %:    90.1892  MISS %:    9.81084   MPKI: 0.679895
PSCL5 TOTAL     ACCESS:      66379  HIT:      66379  MISS:          0  HIT %:        100  MISS %:          0   MPKI: 0
PSCL5 LOAD      ACCESS:          0  HIT:          0  MISS:          0  HIT %:       -nan  MISS %:       -nan   MPKI: 0
PSCL5 RFO       ACCESS:          0  HIT:          0  MISS:          0  HIT %:       -nan  MISS %:       -nan   MPKI: 0
PSCL5 PREFETCH  ACCESS:          0  HIT:          0  MISS:          0  HIT %:       -nan  MISS %:       -nan   MPKI: 0
PSCL5 WRITEBACK ACCESS:          0  HIT:          0  MISS:          0  HIT %:       -nan  MISS %:       -nan   MPKI: 0
PSCL4 TOTAL     ACCESS:      66379  HIT:      66379  MISS:          0  HIT %:        100  MISS %:          0   MPKI: 0
PSCL4 LOAD      ACCESS:          0  HIT:          0  MISS:          0  HIT %:       -nan  MISS %:       -nan   MPKI: 0
PSCL4 RFO       ACCESS:          0  HIT:          0  MISS:          0  HIT %:       -nan  MISS %:       -nan   MPKI: 0
PSCL4 PREFETCH  ACCESS:          0  HIT:          0  MISS:          0  HIT %:       -nan  MISS %:       -nan   MPKI: 0
PSCL4 WRITEBACK ACCESS:          0  HIT:          0  MISS:          0  HIT %:       -nan  MISS %:       -nan   MPKI: 0
PSCL3 TOTAL     ACCESS:      66379  HIT:      66379  MISS:          0  HIT %:        100  MISS %:          0   MPKI: 0
PSCL3 LOAD      ACCESS:          0  HIT:          0  MISS:          0  HIT %:       -nan  MISS %:       -nan   MPKI: 0
PSCL3 RFO       ACCESS:          0  HIT:          0  MISS:          0  HIT %:       -nan  MISS %:       -nan   MPKI: 0
PSCL3 PREFETCH  ACCESS:          0  HIT:          0  MISS:          0  HIT %:       -nan  MISS %:       -nan   MPKI: 0
PSCL3 WRITEBACK ACCESS:          0  HIT:          0  MISS:          0  HIT %:       -nan  MISS %:       -nan   MPKI: 0
PSCL2 TOTAL     ACCESS:      66270  HIT:      66068  MISS:        202  HIT %:    99.6952  MISS %:   0.304814   MPKI: 0.00101
PSCL2 LOAD      ACCESS:          0  HIT:          0  MISS:          0  HIT %:       -nan  MISS %:       -nan   MPKI: 0
PSCL2 RFO       ACCESS:          0  HIT:          0  MISS:          0  HIT %:       -nan  MISS %:       -nan   MPKI: 0
PSCL2 PREFETCH  ACCESS:          0  HIT:          0  MISS:          0  HIT %:       -nan  MISS %:       -nan   MPKI: 0
PSCL2 WRITEBACK ACCESS:          0  HIT:          0  MISS:          0  HIT %:       -nan  MISS %:       -nan   MPKI: 0
LLC TOTAL     ACCESS:    3999770  HIT:    1622954  MISS:    2376816  HIT %:    40.5762  MISS %:    59.4238   MPKI: 11.8841
LLC LOAD      ACCESS:     288041  HIT:      30909  MISS:     257132  HIT %:    10.7308  MISS %:    89.2692   MPKI: 1.28566
LLC RFO       ACCESS:     566410  HIT:      85989  MISS:     480421  HIT %:    15.1814  MISS %:    84.8186   MPKI: 2.40211
LLC PREFETCH  ACCESS:    2003890  HIT:     408992  MISS:    1594898  HIT %:    20.4099  MISS %:    79.5901   MPKI: 7.97449
LLC WRITEBACK ACCESS:    1136110  HIT:    1096391  MISS:      39719  HIT %:    96.5039  MISS %:    3.49605   MPKI: 0.198595

RAW hits: 326824
Loads Generated: 59115993
Loads sent to L1D: 58789160
Stores Generated: 10854695
Stores sent to L1D: 10854694

CPU 3 cumulative IPC: 0.610398 instructions: 200101111 cycles: 327820679
ITLB TOTAL     ACCESS:   31060000  HIT:   31059809  MISS:        191  HIT %:    99.9994  MISS %: 0.000614939   MPKI: 0.000954517
ITLB LOAD      ACCESS:          0  HIT:          0  MISS:          0  HIT %:       -nan  MISS %:       -nan   MPKI: 0
ITLB RFO       ACCESS:          0  HIT:          0  MISS:          0  HIT %:       -nan  MISS %:       -nan   MPKI: 0
ITLB PREFETCH  ACCESS:          0  HIT:          0  MISS:          0  HIT %:       -nan  MISS %:       -nan   MPKI: 0
ITLB WRITEBACK ACCESS:          0  HIT:          0  MISS:          0  HIT %:       -nan  MISS %:       -nan   MPKI: 0
DTLB TOTAL     ACCESS:   40892470  HIT:   40707145  MISS:     185325  HIT %:    99.5468  MISS %:   0.453201   MPKI: 0.926157
DTLB LOAD      ACCESS:          0  HIT:          0  MISS:          0  HIT %:       -nan  MISS %:       -nan   MPKI: 0
DTLB RFO       ACCESS:          0  HIT:          0  MISS:          0  HIT %:       -nan  MISS %:       -nan   MPKI: 0
DTLB PREFETCH  ACCESS:          0  HIT:          0  MISS:          0  HIT %:       -nan  MISS %:       -nan   MPKI: 0
DTLB WRITEBACK ACCESS:          0  HIT:          0  MISS:          0  HIT %:       -nan  MISS %:       -nan   MPKI: 0
STLB TOTAL     ACCESS:    9737748  HIT:    9709889  MISS:      27859  HIT %:    99.7139  MISS %:   0.286093   MPKI: 0.139225
STLB LOAD      ACCESS:          0  HIT:          0  MISS:          0  HIT %:       -nan  MISS %:       -nan   MPKI: 0
STLB RFO       ACCESS:          0  HIT:          0  MISS:          0  HIT %:       -nan  MISS %:       -nan   MPKI: 0
STLB PREFETCH  ACCESS:          0  HIT:          0  MISS:          0  HIT %:       -nan  MISS %:       -nan   MPKI: 0
STLB WRITEBACK ACCESS:          0  HIT:          0  MISS:          0  HIT %:       -nan  MISS %:       -nan   MPKI: 0
L1D TOTAL     ACCESS:   72643951  HIT:   68970551  MISS:    3673400  HIT %:    94.9433  MISS %:    5.05672   MPKI: 18.3577
L1D LOAD      ACCESS:   36696213  HIT:   35277715  MISS:    1418498  HIT %:    96.1345  MISS %:    3.86552   MPKI: 7.08891
L1D RFO       ACCESS:    8515866  HIT:    7804247  MISS:     711619  HIT %:    91.6436  MISS %:    8.35639   MPKI: 3.5563
L1D PREFETCH  ACCESS:   27431872  HIT:   25888589  MISS:    1543283  HIT %:    94.3741  MISS %:    5.62588   MPKI: 7.71252
L1D WRITEBACK ACCESS:          0  HIT:          0  MISS:          0  HIT %:       -nan  MISS %:       -nan   MPKI: 0
L1I TOTAL     ACCESS:   38113274  HIT:   38107111  MISS:       6163  HIT %:    99.9838  MISS %:  0.0161702   MPKI: 0.0307994
L1I LOAD      ACCESS:   38113274  HIT:   38107111  MISS:       6163  HIT %:    99.9838  MISS %:  0.0161702   MPKI: 0.0307994
L1I RFO       ACCESS:          0  HIT:          0  MISS:          0  HIT %:       -nan  MISS %:       -nan   MPKI: 0
L1I PREFETCH  ACCESS:          0  HIT:          0  MISS:          0  HIT %:       -nan  MISS %:       -nan   MPKI: 0
L1I WRITEBACK ACCESS:          0  HIT:          0  MISS:          0  HIT %:       -nan  MISS %:       -nan   MPKI: 0
L2C TOTAL     ACCESS:    9717438  HIT:    6721143  MISS:    2996295  HIT %:    69.1658  MISS %:    30.8342   MPKI: 14.9739
L2C LOAD      ACCESS:    1307462  HIT:     802040  MISS:     505422  HIT %:    61.3433  MISS %:    38.6567   MPKI: 2.52583
L2C RFO       ACCESS:     711518  HIT:     143548  MISS:     567970  HIT %:    20.1749  MISS %:    79.8251   MPKI: 2.83842
L2C PREFETCH  ACCESS:    6246023  HIT:    4462228  MISS:    1783795  HIT %:    71.4411  MISS %:    28.5589   MPKI: 8.91447
L2C WRITEBACK ACCESS:    1386478  HIT:    1252762  MISS:     133716  HIT %:    90.3557  MISS %:    9.64429   MPKI: 0.668242
PSCL5 TOTAL     ACCESS:      65718  HIT:      65718  MISS:          0  HIT %:        100  MISS %:          0   MPKI: 0
PSCL5 LOAD      ACCESS:          0  HIT:          0  MISS:          0  HIT %:       -nan  MISS %:       -nan   MPKI: 0
PSCL5 RFO       ACCESS:          0  HIT:          0  MISS:          0  HIT %:       -nan  MISS %:       -nan   MPKI: 0
PSCL5 PREFETCH  ACCESS:          0  HIT:          0  MISS:          0  HIT %:       -nan  MISS %:       -nan   MPKI: 0
PSCL5 WRITEBACK ACCESS:          0  HIT:          0  MISS:          0  HIT %:       -nan  MISS %:       -nan   MPKI: 0
PSCL4 TOTAL     ACCESS:      65718  HIT:      65718  MISS:          0  HIT %:        100  MISS %:          0   MPKI: 0
PSCL4 LOAD      ACCESS:          0  HIT:          0  MISS:          0  HIT %:       -nan  MISS %:       -nan   MPKI: 0
PSCL4 RFO       ACCESS:          0  HIT:          0  MISS:          0  HIT %:       -nan  MISS %:       -nan   MPKI: 0
PSCL4 PREFETCH  ACCESS:          0  HIT:          0  MISS:          0  HIT %:       -nan  MISS %:       -nan   MPKI: 0
PSCL4 WRITEBACK ACCESS:          0  HIT:          0  MISS:          0  HIT %:       -nan  MISS %:       -nan   MPKI: 0
PSCL3 TOTAL     ACCESS:      65718  HIT:      65718  MISS:          0  HIT %:        100  MISS %:          0   MPKI: 0
PSCL3 LOAD      ACCESS:          0  HIT:          0  MISS:          0  HIT %:       -nan  MISS %:       -nan   MPKI: 0
PSCL3 RFO       ACCESS:          0  HIT:          0  MISS:          0  HIT %:       -nan  MISS %:       -nan   MPKI: 0
PSCL3 PREFETCH  ACCESS:          0  HIT:          0  MISS:          0  HIT %:       -nan  MISS %:       -nan   MPKI: 0
PSCL3 WRITEBACK ACCESS:          0  HIT:          0  MISS:          0  HIT %:       -nan  MISS %:       -nan   MPKI: 0
PSCL2 TOTAL     ACCESS:      65647  HIT:      65444  MISS:        203  HIT %:    99.6908  MISS %:    0.30923   MPKI: 0.00101449
PSCL2 LOAD      ACCESS:          0  HIT:          0  MISS:          0  HIT %:       -nan  MISS %:       -nan   MPKI: 0
PSCL2 RFO       ACCESS:          0  HIT:          0  MISS:          0  HIT %:       -nan  MISS %:       -nan   MPKI: 0
PSCL2 PREFETCH  ACCESS:          0  HIT:          0  MISS:          0  HIT %:       -nan  MISS %:       -nan   MPKI: 0
PSCL2 WRITEBACK ACCESS:          0  HIT:          0  MISS:          0  HIT %:       -nan  MISS %:       -nan   MPKI: 0
LLC TOTAL     ACCESS:    3996712  HIT:    1618015  MISS:    2378697  HIT %:    40.4837  MISS %:    59.5163   MPKI: 11.8875
LLC LOAD      ACCESS:     286634  HIT:      30024  MISS:     256610  HIT %:    10.4747  MISS %:    89.5253   MPKI: 1.2824
LLC RFO       ACCESS:     565406  HIT:      85583  MISS:     479823  HIT %:    15.1366  MISS %:    84.8634   MPKI: 2.3979
LLC PREFETCH  ACCESS:    2005136  HIT:     408784  MISS:    1596352  HIT %:    20.3868  MISS %:    79.6132   MPKI: 7.97773
LLC WRITEBACK ACCESS:    1134144  HIT:    1092903  MISS:      41241  HIT %:    96.3637  MISS %:    3.63631   MPKI: 0.206101

RAW hits: 327151
Loads Generated: 59153205
Loads sent to L1D: 58826050
Stores Generated: 10858738
Stores sent to L1D: 10858741

Region of Interest Statistics

CPU 0 cumulative IPC: 0.617248 instructions: 200000001 cycles: 324018660
ITLB TOTAL     ACCESS:   31060594  HIT:   31060403  MISS:        191  HIT %:    99.9994  MISS %: 0.000614927   MPKI: 0.000955
ITLB LOAD TRANSLATION ACCESS:   31060594  HIT:   31060403  MISS:        191  HIT %:    99.9994  MISS %: 0.000614927   MPKI: 0.000955
ITLB PREFETCH  REQUESTED:          0  ISSUED:          0  USEFUL:          0  USELESS:          0
ITLB USEFUL LOAD PREFETCHES:          0 PREFETCH ISSUED TO LOWER LEVEL:          0  ACCURACY: -nan
ITLB TIMELY PREFETCHES:          0 LATE PREFETCHES: 0 DROPPED PREFETCHES: 0
ITLB PREFETCHES SAME FILL-ORIGIN LEVEL: 0 DIFFERENT FILL-ORIGIN LEVEL: 0
ITLB AVERAGE MISS LATENCY: 668.377 cycles
ITLB RQ	ACCESS:   38841418	FORWARD:          0	MERGED:    7103481	TO_CACHE:   31737937

DTLB TOTAL     ACCESS:   40868322  HIT:   40682889  MISS:     185433  HIT %:    99.5463  MISS %:   0.453733   MPKI: 0.927165
DTLB LOAD TRANSLATION ACCESS:   40868322  HIT:   40682889  MISS:     185433  HIT %:    99.5463  MISS %:   0.453733   MPKI: 0.927165
DTLB PREFETCH  REQUESTED:          0  ISSUED:          0  USEFUL:          0  USELESS:          0
DTLB USEFUL LOAD PREFETCHES:          0 PREFETCH ISSUED TO LOWER LEVEL:          0  ACCURACY: -nan
DTLB TIMELY PREFETCHES:          0 LATE PREFETCHES: 0 DROPPED PREFETCHES: 0
DTLB PREFETCHES SAME FILL-ORIGIN LEVEL: 0 DIFFERENT FILL-ORIGIN LEVEL: 0
DTLB AVERAGE MISS LATENCY: 30.3172 cycles
DTLB RQ	ACCESS:   50019872	FORWARD:          0	MERGED:    7565967	TO_CACHE:   42453905

STLB TOTAL     ACCESS:    9752785  HIT:    9724943  MISS:      27842  HIT %:    99.7145  MISS %:   0.285477   MPKI: 0.13921
STLB LOAD TRANSLATION ACCESS:     185624  HIT:     173762  MISS:      11862  HIT %:    93.6097  MISS %:    6.39034   MPKI: 0.05931
STLB TRANSLATION FROM L1D PREFETCHER ACCESS:    9567161  HIT:    9551181  MISS:      15980  HIT %:     99.833  MISS %:    0.16703   MPKI: 0.0799
STLB PREFETCH  REQUESTED:          0  ISSUED:          0  USEFUL:      16203  USELESS:         40
STLB USEFUL LOAD PREFETCHES:      16203 PREFETCH ISSUED TO LOWER LEVEL:          0  ACCURACY: inf
STLB TIMELY PREFETCHES:      16203 LATE PREFETCHES: 1534 DROPPED PREFETCHES: 39011
STLB PREFETCHES SAME FILL-ORIGIN LEVEL: 0 DIFFERENT FILL-ORIGIN LEVEL: 0
STLB AVERAGE MISS LATENCY: 237.929 cycles
STLB RQ	ACCESS:   38227894	FORWARD:          0	MERGED:   27986761	TO_CACHE:   10241133

STLB Hit, L1D data hit: 0
STLB Hit, L2C data hit: 0
STLB Hit, LLC data hit: 0
STLB Hit, LLC data miss: 0
STLB STLB hints to L2: 0
L1D TOTAL     ACCESS:   72206686  HIT:   68534944  MISS:    3671742  HIT %:     94.915  MISS %:    5.08504   MPKI: 18.3587
L1D LOAD      ACCESS:   36662234  HIT:   35234186  MISS:    1428048  HIT %:    96.1049  MISS %:    3.89515   MPKI: 7.14024
L1D RFO       ACCESS:    8510356  HIT:    7799305  MISS:     711051  HIT %:    91.6449  MISS %:    8.35513   MPKI: 3.55525
L1D PREFETCH  ACCESS:   27034096  HIT:   25501453  MISS:    1532643  HIT %:    94.3307  MISS %:     5.6693   MPKI: 7.66321
L1D PREFETCH  REQUESTED:  119640083  ISSUED:   82485980  USEFUL:    1520432  USELESS:      75463
L1D USEFUL LOAD PREFETCHES:    1520432 PREFETCH ISSUED TO LOWER LEVEL:    8603326  ACCURACY: 17.6726
L1D TIMELY PREFETCHES:    1520432 LATE PREFETCHES: 116314 DROPPED PREFETCHES: 66093
L1D PREFETCHES SAME FILL-ORIGIN LEVEL: 1715143 DIFFERENT FILL-ORIGIN LEVEL: 6888183
L1D AVERAGE MISS LATENCY: 314.349 cycles
L1D RQ	ACCESS:   61002723	FORWARD:          0	MERGED:   21929032	TO_CACHE:   39051677
L1D WQ	ACCESS:   11019776	FORWARD:      22320	MERGED:      51581	TO_CACHE:   10968195
L1D PQ	ACCESS:   44444211	FORWARD:          0	MERGED:    6402136	TO_CACHE:   38041769

L1D UNIQUE REGIONS ACCESSED: 0
L1D REGIONS CONFLICTS: 0
L1D Cross Page Prefetch Requests: 6866608
L1D Same Page Prefetch Requests: 56732867
L1D ROI Sum of L1D PQ occupancy: 606731434
L1D PREFETCHES PUSHED FROM L2C: 0
L1I TOTAL     ACCESS:   38113605  HIT:   38107442  MISS:       6163  HIT %:    99.9838  MISS %:  0.0161701   MPKI: 0.030815
L1I LOAD      ACCESS:   38113605  HIT:   38107442  MISS:       6163  HIT %:    99.9838  MISS %:  0.0161701   MPKI: 0.030815
L1I PREFETCH  REQUESTED:          0  ISSUED:          0  USEFUL:          0  USELESS:          0
L1I USEFUL LOAD PREFETCHES:          0 PREFETCH ISSUED TO LOWER LEVEL:          0  ACCURACY: -nan
L1I TIMELY PREFETCHES:          0 LATE PREFETCHES: 0 DROPPED PREFETCHES: 0
L1I PREFETCHES SAME FILL-ORIGIN LEVEL: 0 DIFFERENT FILL-ORIGIN LEVEL: 0
L1I AVERAGE MISS LATENCY: 728.848 cycles
L1I RQ	ACCESS:   55976542	FORWARD:          0	MERGED:   17135124	TO_CACHE:   38841418

BTB TOTAL     ACCESS:    9140741  HIT:    9133357  MISS:       7384  HIT %:    99.9192  MISS %:  0.0807812   MPKI: 0.03692
BTB BRANCH_DIRECT_JUMP	ACCESS:     290392  HIT:     290288  MISS:        104
BTB BRANCH_INDIRECT	ACCESS:         12  HIT:          8  MISS:          4
BTB BRANCH_CONDITIONAL	ACCESS:    8250236  HIT:    8249374  MISS:        862
BTB BRANCH_DIRECT_CALL	ACCESS:     300051  HIT:     299561  MISS:        490
BTB BRANCH_INDIRECT_CALL	ACCESS:          0  HIT:          0  MISS:          0
BTB BRANCH_RETURN	ACCESS:     300050  HIT:     294126  MISS:       5924
BTB BRANCH_OTHER ACCESS:          0  HIT:          0  MISS:          0

L2C TOTAL     ACCESS:    9712185  HIT:    6711149  MISS:    3001036  HIT %:    69.1003  MISS %:    30.8997   MPKI: 15.0052
L2C LOAD      ACCESS:    1319775  HIT:     803981  MISS:     515794  HIT %:     60.918  MISS %:     39.082   MPKI: 2.57897
L2C DATA LOAD MPKI: 2.54815
L2C INSTRUCTION LOAD MPKI: 0.030815
L2C RFO       ACCESS:     710950  HIT:     142919  MISS:     568031  HIT %:    20.1025  MISS %:    79.8975   MPKI: 2.84015
L2C PREFETCH  ACCESS:    6227651  HIT:    4454191  MISS:    1773460  HIT %:    71.5228  MISS %:    28.4772   MPKI: 8.8673
L2C DATA PREFETCH MPKI: 8.8673
L2C INSTRUCTION PREFETCH MPKI: 0
L2C WRITEBACK ACCESS:    1386061  HIT:    1247607  MISS:     138454  HIT %:     90.011  MISS %:    9.98903   MPKI: 0.69227
L2C LOAD TRANSLATION ACCESS:      11165  HIT:       9025  MISS:       2140  HIT %:     80.833  MISS %:     19.167   MPKI: 0.0107
L2C TRANSLATION FROM L1D PREFETCHER ACCESS:      56583  HIT:      53426  MISS:       3157  HIT %:    94.4206  MISS %:    5.57941   MPKI: 0.015785
L2C PREFETCH  REQUESTED:          0  ISSUED:          0  USEFUL:     632250  USELESS:    1173493
L2C USEFUL LOAD PREFETCHES:     632250 PREFETCH ISSUED TO LOWER LEVEL:    2036678  ACCURACY: 31.0432
L2C TIMELY PREFETCHES:     632250 LATE PREFETCHES: 233960 DROPPED PREFETCHES: 0
L2C PREFETCHES SAME FILL-ORIGIN LEVEL: 1452544 DIFFERENT FILL-ORIGIN LEVEL: 0
L2C AVERAGE MISS LATENCY: 652.432 cycles
L2C RQ	ACCESS:    2118030	FORWARD:          0	MERGED:          0	TO_CACHE:    2118002
L2C WQ	ACCESS:    1401687	FORWARD:        245	MERGED:          0	TO_CACHE:    1401687
L2C PQ	ACCESS:    8504567	FORWARD:          0	MERGED:      38477	TO_CACHE:    8465873

L2C Instructions Evicting Data 6217
L2C Translations Evicting Data 5326
L2C Data Evicting Data 2872780
L2C Instructions Evicting Instructions 52
L2C Translations Evicting Instructions 22
L2C Data Evicting Instructions 5979
L2C Instructions Evicting Translations 18
L2C Translations Evicting Translations 8
L2C Data Evicting Translations 5113
L2C Dense regions hint from L2: 0
PSCL5 TOTAL     ACCESS:      67504  HIT:      67504  MISS:          0  HIT %:        100  MISS %:          0   MPKI: 0
PSCL5 LOAD TRANSLATION ACCESS:      10988  HIT:      10988  MISS:          0  HIT %:        100  MISS %:          0   MPKI: 0
PSCL5 TRANSLATION FROM L1D PREFETCHER ACCESS:      56516  HIT:      56516  MISS:          0  HIT %:        100  MISS %:          0   MPKI: 0
PSCL5 PREFETCH  REQUESTED:          0  ISSUED:          0  USEFUL:          0  USELESS:          0
PSCL5 USEFUL LOAD PREFETCHES:          0 PREFETCH ISSUED TO LOWER LEVEL:          0  ACCURACY: -nan
PSCL5 TIMELY PREFETCHES:          0 LATE PREFETCHES: 0 DROPPED PREFETCHES: 0
PSCL5 PREFETCHES SAME FILL-ORIGIN LEVEL: 0 DIFFERENT FILL-ORIGIN LEVEL: 0

PSCL4 TOTAL     ACCESS:      67504  HIT:      67504  MISS:          0  HIT %:        100  MISS %:          0   MPKI: 0
PSCL4 LOAD TRANSLATION ACCESS:      10988  HIT:      10988  MISS:          0  HIT %:        100  MISS %:          0   MPKI: 0
PSCL4 TRANSLATION FROM L1D PREFETCHER ACCESS:      56516  HIT:      56516  MISS:          0  HIT %:        100  MISS %:          0   MPKI: 0
PSCL4 PREFETCH  REQUESTED:          0  ISSUED:          0  USEFUL:          0  USELESS:          0
PSCL4 USEFUL LOAD PREFETCHES:          0 PREFETCH ISSUED TO LOWER LEVEL:          0  ACCURACY: -nan
PSCL4 TIMELY PREFETCHES:          0 LATE PREFETCHES: 0 DROPPED PREFETCHES: 0
PSCL4 PREFETCHES SAME FILL-ORIGIN LEVEL: 0 DIFFERENT FILL-ORIGIN LEVEL: 0

PSCL3 TOTAL     ACCESS:      67504  HIT:      67504  MISS:          0  HIT %:        100  MISS %:          0   MPKI: 0
PSCL3 LOAD TRANSLATION ACCESS:      10988  HIT:      10988  MISS:          0  HIT %:        100  MISS %:          0   MPKI: 0
PSCL3 TRANSLATION FROM L1D PREFETCHER ACCESS:      56516  HIT:      56516  MISS:          0  HIT %:        100  MISS %:          0   MPKI: 0
PSCL3 PREFETCH  REQUESTED:          0  ISSUED:          0  USEFUL:          0  USELESS:          0
PSCL3 USEFUL LOAD PREFETCHES:          0 PREFETCH ISSUED TO LOWER LEVEL:          0  ACCURACY: -nan
PSCL3 TIMELY PREFETCHES:          0 LATE PREFETCHES: 0 DROPPED PREFETCHES: 0
PSCL3 PREFETCHES SAME FILL-ORIGIN LEVEL: 0 DIFFERENT FILL-ORIGIN LEVEL: 0

PSCL2 TOTAL     ACCESS:      67427  HIT:      67223  MISS:        204  HIT %:    99.6975  MISS %:   0.302549   MPKI: 0.00102
PSCL2 LOAD TRANSLATION ACCESS:      11006  HIT:      10802  MISS:        204  HIT %:    98.1465  MISS %:    1.85353   MPKI: 0.00102
PSCL2 TRANSLATION FROM L1D PREFETCHER ACCESS:      56421  HIT:      56421  MISS:          0  HIT %:        100  MISS %:          0   MPKI: 0
PSCL2 PREFETCH  REQUESTED:          0  ISSUED:          0  USEFUL:          0  USELESS:          0
PSCL2 USEFUL LOAD PREFETCHES:          0 PREFETCH ISSUED TO LOWER LEVEL:          0  ACCURACY: -nan
PSCL2 TIMELY PREFETCHES:          0 LATE PREFETCHES: 0 DROPPED PREFETCHES: 0
PSCL2 PREFETCHES SAME FILL-ORIGIN LEVEL: 0 DIFFERENT FILL-ORIGIN LEVEL: 0

LLC TOTAL     ACCESS:    3997953  HIT:    1606822  MISS:    2391131  HIT %:    40.1911  MISS %:    59.8089   MPKI: 11.9557
LLC LOAD      ACCESS:     287425  HIT:      30904  MISS:     256521  HIT %:     10.752  MISS %:     89.248   MPKI: 1.2826
LLC RFO       ACCESS:     564458  HIT:     102499  MISS:     461959  HIT %:    18.1588  MISS %:    81.8412   MPKI: 2.30979
LLC PREFETCH  ACCESS:    2005391  HIT:     385966  MISS:    1619425  HIT %:    19.2464  MISS %:    80.7536   MPKI: 8.09712
LLC WRITEBACK ACCESS:    1135382  HIT:    1086773  MISS:      48609  HIT %:    95.7187  MISS %:    4.28129   MPKI: 0.243045
LLC LOAD TRANSLATION ACCESS:       2140  HIT:        258  MISS:       1882  HIT %:    12.0561  MISS %:    87.9439   MPKI: 0.00941
LLC TRANSLATION FROM L1D PREFETCHER ACCESS:       3157  HIT:        422  MISS:       2735  HIT %:    13.3671  MISS %:    86.6329   MPKI: 0.013675
LLC PREFETCH  REQUESTED:          0  ISSUED:          0  USEFUL:     214147  USELESS:    6252734
LLC USEFUL LOAD PREFETCHES:     214147 PREFETCH ISSUED TO LOWER LEVEL:   41860836  ACCURACY: 0.511569
LLC TIMELY PREFETCHES:     214147 LATE PREFETCHES: 0 DROPPED PREFETCHES: 0
LLC PREFETCHES SAME FILL-ORIGIN LEVEL: 0 DIFFERENT FILL-ORIGIN LEVEL: 0
LLC AVERAGE MISS LATENCY: 3325.79 cycles
LLC RQ	ACCESS:    3434628	FORWARD:          0	MERGED:          0	TO_CACHE:    3434623
LLC WQ	ACCESS:    4561807	FORWARD:         43	MERGED:          0	TO_CACHE:    4561807
LLC PQ	ACCESS:    8086458	FORWARD:          0	MERGED:          0	TO_CACHE:    8086420

LLC Dense regions hint to LLC: 0

RAW hits: 325139
Loads Generated: 59115804
Loads sent to L1D: 58790660
Stores Generated: 10854672
Stores sent to L1D: 10854672
Major fault: 0 Minor fault: 10674
Allocated PAGES: 42690

CPU 1 cumulative IPC: 0.617624 instructions: 200000000 cycles: 323821650
ITLB TOTAL     ACCESS:   31059640  HIT:   31059449  MISS:        191  HIT %:    99.9994  MISS %: 0.000614946   MPKI: 0.000955
ITLB LOAD TRANSLATION ACCESS:   31059640  HIT:   31059449  MISS:        191  HIT %:    99.9994  MISS %: 0.000614946   MPKI: 0.000955
ITLB PREFETCH  REQUESTED:          0  ISSUED:          0  USEFUL:          0  USELESS:          0
ITLB USEFUL LOAD PREFETCHES:          0 PREFETCH ISSUED TO LOWER LEVEL:          0  ACCURACY: -nan
ITLB TIMELY PREFETCHES:          0 LATE PREFETCHES: 0 DROPPED PREFETCHES: 0
ITLB PREFETCHES SAME FILL-ORIGIN LEVEL: 0 DIFFERENT FILL-ORIGIN LEVEL: 0
ITLB AVERAGE MISS LATENCY: 702.974 cycles
ITLB RQ	ACCESS:   38877159	FORWARD:          0	MERGED:    7104790	TO_CACHE:   31772369

DTLB TOTAL     ACCESS:   40859325  HIT:   40673816  MISS:     185509  HIT %:     99.546  MISS %:   0.454019   MPKI: 0.927545
DTLB LOAD TRANSLATION ACCESS:   40859325  HIT:   40673816  MISS:     185509  HIT %:     99.546  MISS %:   0.454019   MPKI: 0.927545
DTLB PREFETCH  REQUESTED:          0  ISSUED:          0  USEFUL:          0  USELESS:          0
DTLB USEFUL LOAD PREFETCHES:          0 PREFETCH ISSUED TO LOWER LEVEL:          0  ACCURACY: -nan
DTLB TIMELY PREFETCHES:          0 LATE PREFETCHES: 0 DROPPED PREFETCHES: 0
DTLB PREFETCHES SAME FILL-ORIGIN LEVEL: 0 DIFFERENT FILL-ORIGIN LEVEL: 0
DTLB AVERAGE MISS LATENCY: 30.1009 cycles
DTLB RQ	ACCESS:   50099430	FORWARD:          0	MERGED:    7568363	TO_CACHE:   42531067

STLB TOTAL     ACCESS:    9785733  HIT:    9757867  MISS:      27866  HIT %:    99.7152  MISS %:   0.284761   MPKI: 0.13933
STLB LOAD TRANSLATION ACCESS:     185700  HIT:     173856  MISS:      11844  HIT %:     93.622  MISS %:    6.37803   MPKI: 0.05922
STLB TRANSLATION FROM L1D PREFETCHER ACCESS:    9600033  HIT:    9584011  MISS:      16022  HIT %:    99.8331  MISS %:   0.166895   MPKI: 0.08011
STLB PREFETCH  REQUESTED:          0  ISSUED:          0  USEFUL:      16251  USELESS:         48
STLB USEFUL LOAD PREFETCHES:      16251 PREFETCH ISSUED TO LOWER LEVEL:          0  ACCURACY: inf
STLB TIMELY PREFETCHES:      16251 LATE PREFETCHES: 1475 DROPPED PREFETCHES: 37461
STLB PREFETCHES SAME FILL-ORIGIN LEVEL: 0 DIFFERENT FILL-ORIGIN LEVEL: 0
STLB AVERAGE MISS LATENCY: 237.82 cycles
STLB RQ	ACCESS:   38365572	FORWARD:          0	MERGED:   28070405	TO_CACHE:   10295167

STLB Hit, L1D data hit: 0
STLB Hit, L2C data hit: 0
STLB Hit, LLC data hit: 0
STLB Hit, LLC data miss: 0
STLB STLB hints to L2: 0
L1D TOTAL     ACCESS:   72334252  HIT:   68660911  MISS:    3673341  HIT %:    94.9217  MISS %:    5.07829   MPKI: 18.3667
L1D LOAD      ACCESS:   36654140  HIT:   35227380  MISS:    1426760  HIT %:    96.1075  MISS %:    3.89249   MPKI: 7.1338
L1D RFO       ACCESS:    8515488  HIT:    7804437  MISS:     711051  HIT %:    91.6499  MISS %:    8.35009   MPKI: 3.55525
L1D PREFETCH  ACCESS:   27164624  HIT:   25629094  MISS:    1535530  HIT %:    94.3473  MISS %:    5.65268   MPKI: 7.67765
L1D PREFETCH  REQUESTED:  120127335  ISSUED:   82741163  USEFUL:    1527256  USELESS:      76832
L1D USEFUL LOAD PREFETCHES:    1527256 PREFETCH ISSUED TO LOWER LEVEL:    8457275  ACCURACY: 18.0585
L1D TIMELY PREFETCHES:    1527256 LATE PREFETCHES: 114737 DROPPED PREFETCHES: 63552
L1D PREFETCHES SAME FILL-ORIGIN LEVEL: 1723121 DIFFERENT FILL-ORIGIN LEVEL: 6734154
L1D AVERAGE MISS LATENCY: 317.322 cycles
L1D RQ	ACCESS:   61121922	FORWARD:          0	MERGED:   21976041	TO_CACHE:   39123648
L1D WQ	ACCESS:   11027992	FORWARD:      22542	MERGED:      52210	TO_CACHE:   10975782
L1D PQ	ACCESS:   44561814	FORWARD:          0	MERGED:    6382156	TO_CACHE:   38179349

L1D UNIQUE REGIONS ACCESSED: 0
L1D REGIONS CONFLICTS: 0
L1D Cross Page Prefetch Requests: 6853402
L1D Same Page Prefetch Requests: 56876514
L1D ROI Sum of L1D PQ occupancy: 607902346
L1D PREFETCHES PUSHED FROM L2C: 0
L1I TOTAL     ACCESS:   38111880  HIT:   38105717  MISS:       6163  HIT %:    99.9838  MISS %:  0.0161708   MPKI: 0.030815
L1I LOAD      ACCESS:   38111880  HIT:   38105717  MISS:       6163  HIT %:    99.9838  MISS %:  0.0161708   MPKI: 0.030815
L1I PREFETCH  REQUESTED:          0  ISSUED:          0  USEFUL:          0  USELESS:          0
L1I USEFUL LOAD PREFETCHES:          0 PREFETCH ISSUED TO LOWER LEVEL:          0  ACCURACY: -nan
L1I TIMELY PREFETCHES:          0 LATE PREFETCHES: 0 DROPPED PREFETCHES: 0
L1I PREFETCHES SAME FILL-ORIGIN LEVEL: 0 DIFFERENT FILL-ORIGIN LEVEL: 0
L1I AVERAGE MISS LATENCY: 780.445 cycles
L1I RQ	ACCESS:   56049532	FORWARD:          0	MERGED:   17172373	TO_CACHE:   38877159

BTB TOTAL     ACCESS:    9140742  HIT:    9133358  MISS:       7384  HIT %:    99.9192  MISS %:  0.0807812   MPKI: 0.03692
BTB BRANCH_DIRECT_JUMP	ACCESS:     290392  HIT:     290288  MISS:        104
BTB BRANCH_INDIRECT	ACCESS:         12  HIT:          8  MISS:          4
BTB BRANCH_CONDITIONAL	ACCESS:    8250237  HIT:    8249375  MISS:        862
BTB BRANCH_DIRECT_CALL	ACCESS:     300051  HIT:     299561  MISS:        490
BTB BRANCH_INDIRECT_CALL	ACCESS:          0  HIT:          0  MISS:          0
BTB BRANCH_RETURN	ACCESS:     300050  HIT:     294126  MISS:       5924
BTB BRANCH_OTHER ACCESS:          0  HIT:          0  MISS:          0

L2C TOTAL     ACCESS:    9660676  HIT:    6663017  MISS:    2997659  HIT %:    68.9705  MISS %:    31.0295   MPKI: 14.9883
L2C LOAD      ACCESS:    1320173  HIT:     804488  MISS:     515685  HIT %:    60.9381  MISS %:    39.0619   MPKI: 2.57843
L2C DATA LOAD MPKI: 2.54761
L2C INSTRUCTION LOAD MPKI: 0.030815
L2C RFO       ACCESS:     710906  HIT:     142825  MISS:     568081  HIT %:    20.0906  MISS %:    79.9094   MPKI: 2.84041
L2C PREFETCH  ACCESS:    6177354  HIT:    4402269  MISS:    1775085  HIT %:    71.2646  MISS %:    28.7354   MPKI: 8.87542
L2C DATA PREFETCH MPKI: 8.87542
L2C INSTRUCTION PREFETCH MPKI: 0
L2C WRITEBACK ACCESS:    1386064  HIT:    1252633  MISS:     133431  HIT %:    90.3734  MISS %:    9.62661   MPKI: 0.667155
L2C LOAD TRANSLATION ACCESS:      11182  HIT:       9000  MISS:       2182  HIT %:    80.4865  MISS %:    19.5135   MPKI: 0.01091
L2C TRANSLATION FROM L1D PREFETCHER ACCESS:      54997  HIT:      51802  MISS:       3195  HIT %:    94.1906  MISS %:    5.80941   MPKI: 0.015975
L2C PREFETCH  REQUESTED:          0  ISSUED:          0  USEFUL:     631403  USELESS:    1178522
L2C USEFUL LOAD PREFETCHES:     631403 PREFETCH ISSUED TO LOWER LEVEL:    2040729  ACCURACY: 30.9401
L2C TIMELY PREFETCHES:     631403 LATE PREFETCHES: 234285 DROPPED PREFETCHES: 0
L2C PREFETCHES SAME FILL-ORIGIN LEVEL: 1446453 DIFFERENT FILL-ORIGIN LEVEL: 0
L2C AVERAGE MISS LATENCY: 652.883 cycles
L2C RQ	ACCESS:    2116748	FORWARD:          0	MERGED:          0	TO_CACHE:    2116717
L2C WQ	ACCESS:    1402536	FORWARD:        282	MERGED:          0	TO_CACHE:    1402536
L2C PQ	ACCESS:    8360585	FORWARD:          0	MERGED:      39477	TO_CACHE:    8320857

L2C Instructions Evicting Data 6233
L2C Translations Evicting Data 5399
L2C Data Evicting Data 2876472
L2C Instructions Evicting Instructions 32
L2C Translations Evicting Instructions 17
L2C Data Evicting Instructions 5941
L2C Instructions Evicting Translations 22
L2C Translations Evicting Translations 16
L2C Data Evicting Translations 5182
L2C Dense regions hint from L2: 0
PSCL5 TOTAL     ACCESS:      65960  HIT:      65960  MISS:          0  HIT %:        100  MISS %:          0   MPKI: 0
PSCL5 LOAD TRANSLATION ACCESS:      11007  HIT:      11007  MISS:          0  HIT %:        100  MISS %:          0   MPKI: 0
PSCL5 TRANSLATION FROM L1D PREFETCHER ACCESS:      54953  HIT:      54953  MISS:          0  HIT %:        100  MISS %:          0   MPKI: 0
PSCL5 PREFETCH  REQUESTED:          0  ISSUED:          0  USEFUL:          0  USELESS:          0
PSCL5 USEFUL LOAD PREFETCHES:          0 PREFETCH ISSUED TO LOWER LEVEL:          0  ACCURACY: -nan
PSCL5 TIMELY PREFETCHES:          0 LATE PREFETCHES: 0 DROPPED PREFETCHES: 0
PSCL5 PREFETCHES SAME FILL-ORIGIN LEVEL: 0 DIFFERENT FILL-ORIGIN LEVEL: 0

PSCL4 TOTAL     ACCESS:      65960  HIT:      65960  MISS:          0  HIT %:        100  MISS %:          0   MPKI: 0
PSCL4 LOAD TRANSLATION ACCESS:      11007  HIT:      11007  MISS:          0  HIT %:        100  MISS %:          0   MPKI: 0
PSCL4 TRANSLATION FROM L1D PREFETCHER ACCESS:      54953  HIT:      54953  MISS:          0  HIT %:        100  MISS %:          0   MPKI: 0
PSCL4 PREFETCH  REQUESTED:          0  ISSUED:          0  USEFUL:          0  USELESS:          0
PSCL4 USEFUL LOAD PREFETCHES:          0 PREFETCH ISSUED TO LOWER LEVEL:          0  ACCURACY: -nan
PSCL4 TIMELY PREFETCHES:          0 LATE PREFETCHES: 0 DROPPED PREFETCHES: 0
PSCL4 PREFETCHES SAME FILL-ORIGIN LEVEL: 0 DIFFERENT FILL-ORIGIN LEVEL: 0

PSCL3 TOTAL     ACCESS:      65960  HIT:      65960  MISS:          0  HIT %:        100  MISS %:          0   MPKI: 0
PSCL3 LOAD TRANSLATION ACCESS:      11007  HIT:      11007  MISS:          0  HIT %:        100  MISS %:          0   MPKI: 0
PSCL3 TRANSLATION FROM L1D PREFETCHER ACCESS:      54953  HIT:      54953  MISS:          0  HIT %:        100  MISS %:          0   MPKI: 0
PSCL3 PREFETCH  REQUESTED:          0  ISSUED:          0  USEFUL:          0  USELESS:          0
PSCL3 USEFUL LOAD PREFETCHES:          0 PREFETCH ISSUED TO LOWER LEVEL:          0  ACCURACY: -nan
PSCL3 TIMELY PREFETCHES:          0 LATE PREFETCHES: 0 DROPPED PREFETCHES: 0
PSCL3 PREFETCHES SAME FILL-ORIGIN LEVEL: 0 DIFFERENT FILL-ORIGIN LEVEL: 0

PSCL2 TOTAL     ACCESS:      65909  HIT:      65707  MISS:        202  HIT %:    99.6935  MISS %:   0.306483   MPKI: 0.00101
PSCL2 LOAD TRANSLATION ACCESS:      11025  HIT:      10823  MISS:        202  HIT %:    98.1678  MISS %:     1.8322   MPKI: 0.00101
PSCL2 TRANSLATION FROM L1D PREFETCHER ACCESS:      54884  HIT:      54884  MISS:          0  HIT %:        100  MISS %:          0   MPKI: 0
PSCL2 PREFETCH  REQUESTED:          0  ISSUED:          0  USEFUL:          0  USELESS:          0
PSCL2 USEFUL LOAD PREFETCHES:          0 PREFETCH ISSUED TO LOWER LEVEL:          0  ACCURACY: -nan
PSCL2 TIMELY PREFETCHES:          0 LATE PREFETCHES: 0 DROPPED PREFETCHES: 0
PSCL2 PREFETCHES SAME FILL-ORIGIN LEVEL: 0 DIFFERENT FILL-ORIGIN LEVEL: 0

LLC TOTAL     ACCESS:    3998937  HIT:    1614759  MISS:    2384178  HIT %:    40.3797  MISS %:    59.6203   MPKI: 11.9209
LLC LOAD      ACCESS:     287139  HIT:      30763  MISS:     256376  HIT %:    10.7136  MISS %:    89.2864   MPKI: 1.28188
LLC RFO       ACCESS:     564371  HIT:     102702  MISS:     461669  HIT %:    18.1976  MISS %:    81.8024   MPKI: 2.30835
LLC PREFETCH  ACCESS:    2007329  HIT:     392287  MISS:    1615042  HIT %:    19.5427  MISS %:    80.4573   MPKI: 8.07521
LLC WRITEBACK ACCESS:    1134721  HIT:    1088249  MISS:      46472  HIT %:    95.9045  MISS %:    4.09546   MPKI: 0.23236
LLC LOAD TRANSLATION ACCESS:       2182  HIT:        284  MISS:       1898  HIT %:    13.0156  MISS %:    86.9844   MPKI: 0.00949
LLC TRANSLATION FROM L1D PREFETCHER ACCESS:       3195  HIT:        474  MISS:       2721  HIT %:    14.8357  MISS %:    85.1643   MPKI: 0.013605
LLC PREFETCH  REQUESTED:          0  ISSUED:          0  USEFUL:     214147  USELESS:    6252734
LLC USEFUL LOAD PREFETCHES:     214147 PREFETCH ISSUED TO LOWER LEVEL:   41860836  ACCURACY: 0.511569
LLC TIMELY PREFETCHES:     214147 LATE PREFETCHES: 0 DROPPED PREFETCHES: 0
LLC PREFETCHES SAME FILL-ORIGIN LEVEL: 0 DIFFERENT FILL-ORIGIN LEVEL: 0
LLC AVERAGE MISS LATENCY: 3335.49 cycles
LLC RQ	ACCESS:    3434628	FORWARD:          0	MERGED:          0	TO_CACHE:    3434623
LLC WQ	ACCESS:    4561807	FORWARD:         43	MERGED:          0	TO_CACHE:    4561807
LLC PQ	ACCESS:    8086458	FORWARD:          0	MERGED:          0	TO_CACHE:    8086420

LLC Dense regions hint to LLC: 0

RAW hits: 326427
Loads Generated: 59115720
Loads sent to L1D: 58789316
Stores Generated: 10854667
Stores sent to L1D: 10854666
Major fault: 0 Minor fault: 10674
Allocated PAGES: 42690

CPU 2 cumulative IPC: 0.61009 instructions: 200000000 cycles: 327820679
ITLB TOTAL     ACCESS:   31047347  HIT:   31047156  MISS:        191  HIT %:    99.9994  MISS %: 0.000615189   MPKI: 0.000955
ITLB LOAD TRANSLATION ACCESS:   31047347  HIT:   31047156  MISS:        191  HIT %:    99.9994  MISS %: 0.000615189   MPKI: 0.000955
ITLB PREFETCH  REQUESTED:          0  ISSUED:          0  USEFUL:          0  USELESS:          0
ITLB USEFUL LOAD PREFETCHES:          0 PREFETCH ISSUED TO LOWER LEVEL:          0  ACCURACY: -nan
ITLB TIMELY PREFETCHES:          0 LATE PREFETCHES: 0 DROPPED PREFETCHES: 0
ITLB PREFETCHES SAME FILL-ORIGIN LEVEL: 0 DIFFERENT FILL-ORIGIN LEVEL: 0
ITLB AVERAGE MISS LATENCY: 797.942 cycles
ITLB RQ	ACCESS:   38103379	FORWARD:          0	MERGED:    7055969	TO_CACHE:   31047410

DTLB TOTAL     ACCESS:   40864064  HIT:   40678529  MISS:     185535  HIT %:     99.546  MISS %:    0.45403   MPKI: 0.927675
DTLB LOAD TRANSLATION ACCESS:   40864064  HIT:   40678529  MISS:     185535  HIT %:     99.546  MISS %:    0.45403   MPKI: 0.927675
DTLB PREFETCH  REQUESTED:          0  ISSUED:          0  USEFUL:          0  USELESS:          0
DTLB USEFUL LOAD PREFETCHES:          0 PREFETCH ISSUED TO LOWER LEVEL:          0  ACCURACY: -nan
DTLB TIMELY PREFETCHES:          0 LATE PREFETCHES: 0 DROPPED PREFETCHES: 0
DTLB PREFETCHES SAME FILL-ORIGIN LEVEL: 0 DIFFERENT FILL-ORIGIN LEVEL: 0
DTLB AVERAGE MISS LATENCY: 31.4409 cycles
DTLB RQ	ACCESS:   48301723	FORWARD:          0	MERGED:    7380737	TO_CACHE:   40920986

STLB TOTAL     ACCESS:    9681210  HIT:    9653339  MISS:      27871  HIT %:    99.7121  MISS %:   0.287888   MPKI: 0.139355
STLB LOAD TRANSLATION ACCESS:     185726  HIT:     173861  MISS:      11865  HIT %:    93.6116  MISS %:    6.38844   MPKI: 0.059325
STLB TRANSLATION FROM L1D PREFETCHER ACCESS:    9495484  HIT:    9479478  MISS:      16006  HIT %:    99.8314  MISS %:   0.168564   MPKI: 0.08003
STLB PREFETCH  REQUESTED:          0  ISSUED:          0  USEFUL:      15955  USELESS:         51
STLB USEFUL LOAD PREFETCHES:      15955 PREFETCH ISSUED TO LOWER LEVEL:          0  ACCURACY: inf
STLB TIMELY PREFETCHES:      15955 LATE PREFETCHES: 1521 DROPPED PREFETCHES: 37837
STLB PREFETCHES SAME FILL-ORIGIN LEVEL: 0 DIFFERENT FILL-ORIGIN LEVEL: 0
STLB AVERAGE MISS LATENCY: 247.191 cycles
STLB RQ	ACCESS:   36540290	FORWARD:          0	MERGED:   26811903	TO_CACHE:    9728387

STLB Hit, L1D data hit: 0
STLB Hit, L2C data hit: 0
STLB Hit, LLC data hit: 0
STLB Hit, LLC data miss: 0
STLB STLB hints to L2: 0
L1D TOTAL     ACCESS:   72573669  HIT:   68900409  MISS:    3673260  HIT %:    94.9386  MISS %:    5.06142   MPKI: 18.3663
L1D LOAD      ACCESS:   36659452  HIT:   35244265  MISS:    1415187  HIT %:    96.1396  MISS %:    3.86036   MPKI: 7.07594
L1D RFO       ACCESS:    8502039  HIT:    7790451  MISS:     711588  HIT %:    91.6304  MISS %:    8.36962   MPKI: 3.55794
L1D PREFETCH  ACCESS:   27412178  HIT:   25865693  MISS:    1546485  HIT %:    94.3584  MISS %:     5.6416   MPKI: 7.73243
L1D PREFETCH  REQUESTED:  112791691  ISSUED:   78700497  USEFUL:    1472192  USELESS:      74308
L1D USEFUL LOAD PREFETCHES:    1472192 PREFETCH ISSUED TO LOWER LEVEL:    8150792  ACCURACY: 18.062
L1D TIMELY PREFETCHES:    1472192 LATE PREFETCHES: 118258 DROPPED PREFETCHES: 65235
L1D PREFETCHES SAME FILL-ORIGIN LEVEL: 1667361 DIFFERENT FILL-ORIGIN LEVEL: 6483431
L1D AVERAGE MISS LATENCY: 330.633 cycles
L1D RQ	ACCESS:   58789160	FORWARD:          0	MERGED:   21266840	TO_CACHE:   37500198
L1D WQ	ACCESS:   10854694	FORWARD:      22369	MERGED:      53169	TO_CACHE:   10801525
L1D PQ	ACCESS:   42345933	FORWARD:          0	MERGED:    5991122	TO_CACHE:   36354564

L1D UNIQUE REGIONS ACCESSED: 0
L1D REGIONS CONFLICTS: 0
L1D Cross Page Prefetch Requests: 6573582
L1D Same Page Prefetch Requests: 54938674
L1D ROI Sum of L1D PQ occupancy: 593130752
L1D PREFETCHES PUSHED FROM L2C: 0
L1I TOTAL     ACCESS:   38100148  HIT:   38093985  MISS:       6163  HIT %:    99.9838  MISS %:  0.0161758   MPKI: 0.030815
L1I LOAD      ACCESS:   38100148  HIT:   38093985  MISS:       6163  HIT %:    99.9838  MISS %:  0.0161758   MPKI: 0.030815
L1I PREFETCH  REQUESTED:          0  ISSUED:          0  USEFUL:          0  USELESS:          0
L1I USEFUL LOAD PREFETCHES:          0 PREFETCH ISSUED TO LOWER LEVEL:          0  ACCURACY: -nan
L1I TIMELY PREFETCHES:          0 LATE PREFETCHES: 0 DROPPED PREFETCHES: 0
L1I PREFETCHES SAME FILL-ORIGIN LEVEL: 0 DIFFERENT FILL-ORIGIN LEVEL: 0
L1I AVERAGE MISS LATENCY: 781.179 cycles
L1I RQ	ACCESS:   54561829	FORWARD:          0	MERGED:   16458450	TO_CACHE:   38103379

BTB TOTAL     ACCESS:    9140725  HIT:    9133341  MISS:       7384  HIT %:    99.9192  MISS %:  0.0807813   MPKI: 0.03692
BTB BRANCH_DIRECT_JUMP	ACCESS:     290391  HIT:     290287  MISS:        104
BTB BRANCH_INDIRECT	ACCESS:         12  HIT:          8  MISS:          4
BTB BRANCH_CONDITIONAL	ACCESS:    8250221  HIT:    8249359  MISS:        862
BTB BRANCH_DIRECT_CALL	ACCESS:     300051  HIT:     299561  MISS:        490
BTB BRANCH_INDIRECT_CALL	ACCESS:          0  HIT:          0  MISS:          0
BTB BRANCH_RETURN	ACCESS:     300050  HIT:     294126  MISS:       5924
BTB BRANCH_OTHER ACCESS:          0  HIT:          0  MISS:          0

L2C TOTAL     ACCESS:    9664881  HIT:    6665233  MISS:    2999648  HIT %:    68.9634  MISS %:    31.0366   MPKI: 14.9982
L2C LOAD      ACCESS:    1303079  HIT:     797312  MISS:     505767  HIT %:    61.1868  MISS %:    38.8132   MPKI: 2.52883
L2C DATA LOAD MPKI: 2.49802
L2C INSTRUCTION LOAD MPKI: 0.030815
L2C RFO       ACCESS:     711470  HIT:     142903  MISS:     568567  HIT %:    20.0856  MISS %:    79.9144   MPKI: 2.84284
L2C PREFETCH  ACCESS:    6197672  HIT:    4413656  MISS:    1784016  HIT %:    71.2147  MISS %:    28.7853   MPKI: 8.92008
L2C DATA PREFETCH MPKI: 8.92008
L2C INSTRUCTION PREFETCH MPKI: 0
L2C WRITEBACK ACCESS:    1386008  HIT:    1250029  MISS:     135979  HIT %:    90.1892  MISS %:    9.81084   MPKI: 0.679895
L2C LOAD TRANSLATION ACCESS:      11191  HIT:       9035  MISS:       2156  HIT %:    80.7345  MISS %:    19.2655   MPKI: 0.01078
L2C TRANSLATION FROM L1D PREFETCHER ACCESS:      55461  HIT:      52298  MISS:       3163  HIT %:    94.2969  MISS %:    5.70311   MPKI: 0.015815
L2C PREFETCH  REQUESTED:          0  ISSUED:          0  USEFUL:     616987  USELESS:    1169316
L2C USEFUL LOAD PREFETCHES:     616987 PREFETCH ISSUED TO LOWER LEVEL:    2003899  ACCURACY: 30.7893
L2C TIMELY PREFETCHES:     616987 LATE PREFETCHES: 219881 DROPPED PREFETCHES: 0
L2C PREFETCHES SAME FILL-ORIGIN LEVEL: 1422155 DIFFERENT FILL-ORIGIN LEVEL: 0
L2C AVERAGE MISS LATENCY: 680.234 cycles
L2C RQ	ACCESS:    2081224	FORWARD:          0	MERGED:          0	TO_CACHE:    2081201
L2C WQ	ACCESS:    1386008	FORWARD:        193	MERGED:          0	TO_CACHE:    1386008
L2C PQ	ACCESS:    8063124	FORWARD:          0	MERGED:      39989	TO_CACHE:    8022965

L2C Instructions Evicting Data 6126
L2C Translations Evicting Data 5290
L2C Data Evicting Data 2841221
L2C Instructions Evicting Instructions 19
L2C Translations Evicting Instructions 15
L2C Data Evicting Instructions 5843
L2C Instructions Evicting Translations 18
L2C Translations Evicting Translations 14
L2C Data Evicting Translations 5123
L2C Dense regions hint from L2: 0
PSCL5 TOTAL     ACCESS:      66379  HIT:      66379  MISS:          0  HIT %:        100  MISS %:          0   MPKI: 0
PSCL5 LOAD TRANSLATION ACCESS:      11015  HIT:      11015  MISS:          0  HIT %:        100  MISS %:          0   MPKI: 0
PSCL5 TRANSLATION FROM L1D PREFETCHER ACCESS:      55364  HIT:      55364  MISS:          0  HIT %:        100  MISS %:          0   MPKI: 0
PSCL5 PREFETCH  REQUESTED:          0  ISSUED:          0  USEFUL:          0  USELESS:          0
PSCL5 USEFUL LOAD PREFETCHES:          0 PREFETCH ISSUED TO LOWER LEVEL:          0  ACCURACY: -nan
PSCL5 TIMELY PREFETCHES:          0 LATE PREFETCHES: 0 DROPPED PREFETCHES: 0
PSCL5 PREFETCHES SAME FILL-ORIGIN LEVEL: 0 DIFFERENT FILL-ORIGIN LEVEL: 0

PSCL4 TOTAL     ACCESS:      66379  HIT:      66379  MISS:          0  HIT %:        100  MISS %:          0   MPKI: 0
PSCL4 LOAD TRANSLATION ACCESS:      11015  HIT:      11015  MISS:          0  HIT %:        100  MISS %:          0   MPKI: 0
PSCL4 TRANSLATION FROM L1D PREFETCHER ACCESS:      55364  HIT:      55364  MISS:          0  HIT %:        100  MISS %:          0   MPKI: 0
PSCL4 PREFETCH  REQUESTED:          0  ISSUED:          0  USEFUL:          0  USELESS:          0
PSCL4 USEFUL LOAD PREFETCHES:          0 PREFETCH ISSUED TO LOWER LEVEL:          0  ACCURACY: -nan
PSCL4 TIMELY PREFETCHES:          0 LATE PREFETCHES: 0 DROPPED PREFETCHES: 0
PSCL4 PREFETCHES SAME FILL-ORIGIN LEVEL: 0 DIFFERENT FILL-ORIGIN LEVEL: 0

PSCL3 TOTAL     ACCESS:      66379  HIT:      66379  MISS:          0  HIT %:        100  MISS %:          0   MPKI: 0
PSCL3 LOAD TRANSLATION ACCESS:      11015  HIT:      11015  MISS:          0  HIT %:        100  MISS %:          0   MPKI: 0
PSCL3 TRANSLATION FROM L1D PREFETCHER ACCESS:      55364  HIT:      55364  MISS:          0  HIT %:        100  MISS %:          0   MPKI: 0
PSCL3 PREFETCH  REQUESTED:          0  ISSUED:          0  USEFUL:          0  USELESS:          0
PSCL3 USEFUL LOAD PREFETCHES:          0 PREFETCH ISSUED TO LOWER LEVEL:          0  ACCURACY: -nan
PSCL3 TIMELY PREFETCHES:          0 LATE PREFETCHES: 0 DROPPED PREFETCHES: 0
PSCL3 PREFETCHES SAME FILL-ORIGIN LEVEL: 0 DIFFERENT FILL-ORIGIN LEVEL: 0

PSCL2 TOTAL     ACCESS:      66270  HIT:      66068  MISS:        202  HIT %:    99.6952  MISS %:   0.304814   MPKI: 0.00101
PSCL2 LOAD TRANSLATION ACCESS:      11032  HIT:      10830  MISS:        202  HIT %:     98.169  MISS %:    1.83104   MPKI: 0.00101
PSCL2 TRANSLATION FROM L1D PREFETCHER ACCESS:      55238  HIT:      55238  MISS:          0  HIT %:        100  MISS %:          0   MPKI: 0
PSCL2 PREFETCH  REQUESTED:          0  ISSUED:          0  USEFUL:          0  USELESS:          0
PSCL2 USEFUL LOAD PREFETCHES:          0 PREFETCH ISSUED TO LOWER LEVEL:          0  ACCURACY: -nan
PSCL2 TIMELY PREFETCHES:          0 LATE PREFETCHES: 0 DROPPED PREFETCHES: 0
PSCL2 PREFETCHES SAME FILL-ORIGIN LEVEL: 0 DIFFERENT FILL-ORIGIN LEVEL: 0

LLC TOTAL     ACCESS:    3999770  HIT:    1622954  MISS:    2376816  HIT %:    40.5762  MISS %:    59.4238   MPKI: 11.8841
LLC LOAD      ACCESS:     288041  HIT:      30909  MISS:     257132  HIT %:    10.7308  MISS %:    89.2692   MPKI: 1.28566
LLC RFO       ACCESS:     566410  HIT:      85989  MISS:     480421  HIT %:    15.1814  MISS %:    84.8186   MPKI: 2.40211
LLC PREFETCH  ACCESS:    2003890  HIT:     408992  MISS:    1594898  HIT %:    20.4099  MISS %:    79.5901   MPKI: 7.97449
LLC WRITEBACK ACCESS:    1136110  HIT:    1096391  MISS:      39719  HIT %:    96.5039  MISS %:    3.49605   MPKI: 0.198595
LLC LOAD TRANSLATION ACCESS:       2156  HIT:        262  MISS:       1894  HIT %:    12.1521  MISS %:    87.8479   MPKI: 0.00947
LLC TRANSLATION FROM L1D PREFETCHER ACCESS:       3163  HIT:        411  MISS:       2752  HIT %:     12.994  MISS %:     87.006   MPKI: 0.01376
LLC PREFETCH  REQUESTED:          0  ISSUED:          0  USEFUL:     214147  USELESS:    6252734
LLC USEFUL LOAD PREFETCHES:     214147 PREFETCH ISSUED TO LOWER LEVEL:   41860836  ACCURACY: 0.511569
LLC TIMELY PREFETCHES:     214147 LATE PREFETCHES: 0 DROPPED PREFETCHES: 0
LLC PREFETCHES SAME FILL-ORIGIN LEVEL: 0 DIFFERENT FILL-ORIGIN LEVEL: 0
LLC AVERAGE MISS LATENCY: 3345.82 cycles
LLC RQ	ACCESS:    3434628	FORWARD:          0	MERGED:          0	TO_CACHE:    3434623
LLC WQ	ACCESS:    4561807	FORWARD:         43	MERGED:          0	TO_CACHE:    4561807
LLC PQ	ACCESS:    8086458	FORWARD:          0	MERGED:          0	TO_CACHE:    8086420

LLC Dense regions hint to LLC: 0

RAW hits: 326824
Loads Generated: 59115993
Loads sent to L1D: 58789160
Stores Generated: 10854695
Stores sent to L1D: 10854694
Major fault: 0 Minor fault: 10671
Allocated PAGES: 42690

CPU 3 cumulative IPC: 0.610209 instructions: 200000000 cycles: 327756478
ITLB TOTAL     ACCESS:   31047197  HIT:   31047006  MISS:        191  HIT %:    99.9994  MISS %: 0.000615192   MPKI: 0.000955
ITLB LOAD TRANSLATION ACCESS:   31047197  HIT:   31047006  MISS:        191  HIT %:    99.9994  MISS %: 0.000615192   MPKI: 0.000955
ITLB PREFETCH  REQUESTED:          0  ISSUED:          0  USEFUL:          0  USELESS:          0
ITLB USEFUL LOAD PREFETCHES:          0 PREFETCH ISSUED TO LOWER LEVEL:          0  ACCURACY: -nan
ITLB TIMELY PREFETCHES:          0 LATE PREFETCHES: 0 DROPPED PREFETCHES: 0
ITLB PREFETCHES SAME FILL-ORIGIN LEVEL: 0 DIFFERENT FILL-ORIGIN LEVEL: 0
ITLB AVERAGE MISS LATENCY: 819.33 cycles
ITLB RQ	ACCESS:   38116494	FORWARD:          0	MERGED:    7056433	TO_CACHE:   31060061

DTLB TOTAL     ACCESS:   40870558  HIT:   40685243  MISS:     185315  HIT %:    99.5466  MISS %:   0.453419   MPKI: 0.926575
DTLB LOAD TRANSLATION ACCESS:   40870558  HIT:   40685243  MISS:     185315  HIT %:    99.5466  MISS %:   0.453419   MPKI: 0.926575
DTLB PREFETCH  REQUESTED:          0  ISSUED:          0  USEFUL:          0  USELESS:          0
DTLB USEFUL LOAD PREFETCHES:          0 PREFETCH ISSUED TO LOWER LEVEL:          0  ACCURACY: -nan
DTLB TIMELY PREFETCHES:          0 LATE PREFETCHES: 0 DROPPED PREFETCHES: 0
DTLB PREFETCHES SAME FILL-ORIGIN LEVEL: 0 DIFFERENT FILL-ORIGIN LEVEL: 0
DTLB AVERAGE MISS LATENCY: 33.2992 cycles
DTLB RQ	ACCESS:   48339401	FORWARD:          0	MERGED:    7389925	TO_CACHE:   40949476

STLB TOTAL     ACCESS:    9732923  HIT:    9705068  MISS:      27855  HIT %:    99.7138  MISS %:   0.286194   MPKI: 0.139275
STLB LOAD TRANSLATION ACCESS:     185506  HIT:     173691  MISS:      11815  HIT %:    93.6309  MISS %:    6.36907   MPKI: 0.059075
STLB TRANSLATION FROM L1D PREFETCHER ACCESS:    9547417  HIT:    9531377  MISS:      16040  HIT %:     99.832  MISS %:   0.168004   MPKI: 0.0802
STLB PREFETCH  REQUESTED:          0  ISSUED:          0  USEFUL:      16008  USELESS:         34
STLB USEFUL LOAD PREFETCHES:      16008 PREFETCH ISSUED TO LOWER LEVEL:          0  ACCURACY: inf
STLB TIMELY PREFETCHES:      16008 LATE PREFETCHES: 1538 DROPPED PREFETCHES: 37151
STLB PREFETCHES SAME FILL-ORIGIN LEVEL: 0 DIFFERENT FILL-ORIGIN LEVEL: 0
STLB AVERAGE MISS LATENCY: 268.005 cycles
STLB RQ	ACCESS:   36609819	FORWARD:          0	MERGED:   26825681	TO_CACHE:    9784138

STLB Hit, L1D data hit: 0
STLB Hit, L2C data hit: 0
STLB Hit, LLC data hit: 0
STLB Hit, LLC data miss: 0
STLB STLB hints to L2: 0
L1D TOTAL     ACCESS:   72595084  HIT:   68922290  MISS:    3672794  HIT %:    94.9407  MISS %:    5.05929   MPKI: 18.364
L1D LOAD      ACCESS:   36670690  HIT:   35252479  MISS:    1418211  HIT %:    96.1326  MISS %:    3.86742   MPKI: 7.09105
L1D RFO       ACCESS:    8512422  HIT:    7800803  MISS:     711619  HIT %:    91.6402  MISS %:    8.35977   MPKI: 3.55809
L1D PREFETCH  ACCESS:   27411972  HIT:   25869008  MISS:    1542964  HIT %:    94.3712  MISS %:     5.6288   MPKI: 7.71482
L1D PREFETCH  REQUESTED:  112900301  ISSUED:   78872513  USEFUL:    1470039  USELESS:      73256
L1D USEFUL LOAD PREFETCHES:    1470039 PREFETCH ISSUED TO LOWER LEVEL:    8177989  ACCURACY: 17.9756
L1D TIMELY PREFETCHES:    1470039 LATE PREFETCHES: 117180 DROPPED PREFETCHES: 62862
L1D PREFETCHES SAME FILL-ORIGIN LEVEL: 1666042 DIFFERENT FILL-ORIGIN LEVEL: 6511947
L1D AVERAGE MISS LATENCY: 329.675 cycles
L1D RQ	ACCESS:   58826050	FORWARD:          0	MERGED:   21270218	TO_CACHE:   37533864
L1D WQ	ACCESS:   10858741	FORWARD:      22191	MERGED:      53204	TO_CACHE:   10805537
L1D PQ	ACCESS:   42448210	FORWARD:          0	MERGED:    6023684	TO_CACHE:   36424303

L1D UNIQUE REGIONS ACCESSED: 0
L1D REGIONS CONFLICTS: 0
L1D Cross Page Prefetch Requests: 6620858
L1D Same Page Prefetch Requests: 55003458
L1D ROI Sum of L1D PQ occupancy: 593402762
L1D PREFETCHES PUSHED FROM L2C: 0
L1I TOTAL     ACCESS:   38099510  HIT:   38093347  MISS:       6163  HIT %:    99.9838  MISS %:  0.0161761   MPKI: 0.030815
L1I LOAD      ACCESS:   38099510  HIT:   38093347  MISS:       6163  HIT %:    99.9838  MISS %:  0.0161761   MPKI: 0.030815
L1I PREFETCH  REQUESTED:          0  ISSUED:          0  USEFUL:          0  USELESS:          0
L1I USEFUL LOAD PREFETCHES:          0 PREFETCH ISSUED TO LOWER LEVEL:          0  ACCURACY: -nan
L1I TIMELY PREFETCHES:          0 LATE PREFETCHES: 0 DROPPED PREFETCHES: 0
L1I PREFETCHES SAME FILL-ORIGIN LEVEL: 0 DIFFERENT FILL-ORIGIN LEVEL: 0
L1I AVERAGE MISS LATENCY: 788.06 cycles
L1I RQ	ACCESS:   54584231	FORWARD:          0	MERGED:   16467737	TO_CACHE:   38116494

BTB TOTAL     ACCESS:    9141040  HIT:    9133643  MISS:       7397  HIT %:    99.9191  MISS %:  0.0809208   MPKI: 0.036985
BTB BRANCH_DIRECT_JUMP	ACCESS:     290387  HIT:     290283  MISS:        104
BTB BRANCH_INDIRECT	ACCESS:         12  HIT:          8  MISS:          4
BTB BRANCH_CONDITIONAL	ACCESS:    8250540  HIT:    8249665  MISS:        875
BTB BRANCH_DIRECT_CALL	ACCESS:     300051  HIT:     299561  MISS:        490
BTB BRANCH_INDIRECT_CALL	ACCESS:          0  HIT:          0  MISS:          0
BTB BRANCH_RETURN	ACCESS:     300050  HIT:     294126  MISS:       5924
BTB BRANCH_OTHER ACCESS:          0  HIT:          0  MISS:          0

L2C TOTAL     ACCESS:    9711994  HIT:    6716357  MISS:    2995637  HIT %:    69.1553  MISS %:    30.8447   MPKI: 14.9782
L2C LOAD      ACCESS:    1307195  HIT:     801827  MISS:     505368  HIT %:    61.3395  MISS %:    38.6605   MPKI: 2.52684
L2C DATA LOAD MPKI: 2.49602
L2C INSTRUCTION LOAD MPKI: 0.030815
L2C RFO       ACCESS:     711518  HIT:     143548  MISS:     567970  HIT %:    20.1749  MISS %:    79.8251   MPKI: 2.83985
L2C PREFETCH  ACCESS:    6241015  HIT:    4457782  MISS:    1783233  HIT %:    71.4272  MISS %:    28.5728   MPKI: 8.91616
L2C DATA PREFETCH MPKI: 8.91616
L2C INSTRUCTION PREFETCH MPKI: 0
L2C WRITEBACK ACCESS:    1386313  HIT:    1252638  MISS:     133675  HIT %:    90.3575  MISS %:    9.64248   MPKI: 0.668375
L2C LOAD TRANSLATION ACCESS:      11160  HIT:       8995  MISS:       2165  HIT %:    80.6004  MISS %:    19.3996   MPKI: 0.010825
L2C TRANSLATION FROM L1D PREFETCHER ACCESS:      54793  HIT:      51567  MISS:       3226  HIT %:    94.1124  MISS %:    5.88761   MPKI: 0.01613
L2C PREFETCH  REQUESTED:          0  ISSUED:          0  USEFUL:     618480  USELESS:    1168249
L2C USEFUL LOAD PREFETCHES:     618480 PREFETCH ISSUED TO LOWER LEVEL:    2005152  ACCURACY: 30.8445
L2C TIMELY PREFETCHES:     618480 LATE PREFETCHES: 221351 DROPPED PREFETCHES: 0
L2C PREFETCHES SAME FILL-ORIGIN LEVEL: 1417978 DIFFERENT FILL-ORIGIN LEVEL: 0
L2C AVERAGE MISS LATENCY: 680.539 cycles
L2C RQ	ACCESS:    2084963	FORWARD:          0	MERGED:          0	TO_CACHE:    2084937
L2C WQ	ACCESS:    1386478	FORWARD:        187	MERGED:          0	TO_CACHE:    1386478
L2C PQ	ACCESS:    8089172	FORWARD:          0	MERGED:      40506	TO_CACHE:    8048505

L2C Instructions Evicting Data 6134
L2C Translations Evicting Data 5354
L2C Data Evicting Data 2840035
L2C Instructions Evicting Instructions 22
L2C Translations Evicting Instructions 21
L2C Data Evicting Instructions 5856
L2C Instructions Evicting Translations 7
L2C Translations Evicting Translations 17
L2C Data Evicting Translations 5133
L2C Dense regions hint from L2: 0
PSCL5 TOTAL     ACCESS:      65714  HIT:      65714  MISS:          0  HIT %:        100  MISS %:          0   MPKI: 0
PSCL5 LOAD TRANSLATION ACCESS:      10986  HIT:      10986  MISS:          0  HIT %:        100  MISS %:          0   MPKI: 0
PSCL5 TRANSLATION FROM L1D PREFETCHER ACCESS:      54728  HIT:      54728  MISS:          0  HIT %:        100  MISS %:          0   MPKI: 0
PSCL5 PREFETCH  REQUESTED:          0  ISSUED:          0  USEFUL:          0  USELESS:          0
PSCL5 USEFUL LOAD PREFETCHES:          0 PREFETCH ISSUED TO LOWER LEVEL:          0  ACCURACY: -nan
PSCL5 TIMELY PREFETCHES:          0 LATE PREFETCHES: 0 DROPPED PREFETCHES: 0
PSCL5 PREFETCHES SAME FILL-ORIGIN LEVEL: 0 DIFFERENT FILL-ORIGIN LEVEL: 0

PSCL4 TOTAL     ACCESS:      65714  HIT:      65714  MISS:          0  HIT %:        100  MISS %:          0   MPKI: 0
PSCL4 LOAD TRANSLATION ACCESS:      10986  HIT:      10986  MISS:          0  HIT %:        100  MISS %:          0   MPKI: 0
PSCL4 TRANSLATION FROM L1D PREFETCHER ACCESS:      54728  HIT:      54728  MISS:          0  HIT %:        100  MISS %:          0   MPKI: 0
PSCL4 PREFETCH  REQUESTED:          0  ISSUED:          0  USEFUL:          0  USELESS:          0
PSCL4 USEFUL LOAD PREFETCHES:          0 PREFETCH ISSUED TO LOWER LEVEL:          0  ACCURACY: -nan
PSCL4 TIMELY PREFETCHES:          0 LATE PREFETCHES: 0 DROPPED PREFETCHES: 0
PSCL4 PREFETCHES SAME FILL-ORIGIN LEVEL: 0 DIFFERENT FILL-ORIGIN LEVEL: 0

PSCL3 TOTAL     ACCESS:      65714  HIT:      65714  MISS:          0  HIT %:        100  MISS %:          0   MPKI: 0
PSCL3 LOAD TRANSLATION ACCESS:      10986  HIT:      10986  MISS:          0  HIT %:        100  MISS %:          0   MPKI: 0
PSCL3 TRANSLATION FROM L1D PREFETCHER ACCESS:      54728  HIT:      54728  MISS:          0  HIT %:        100  MISS %:          0   MPKI: 0
PSCL3 PREFETCH  REQUESTED:          0  ISSUED:          0  USEFUL:          0  USELESS:          0
PSCL3 USEFUL LOAD PREFETCHES:          0 PREFETCH ISSUED TO LOWER LEVEL:          0  ACCURACY: -nan
PSCL3 TIMELY PREFETCHES:          0 LATE PREFETCHES: 0 DROPPED PREFETCHES: 0
PSCL3 PREFETCHES SAME FILL-ORIGIN LEVEL: 0 DIFFERENT FILL-ORIGIN LEVEL: 0

PSCL2 TOTAL     ACCESS:      65643  HIT:      65440  MISS:        203  HIT %:    99.6908  MISS %:   0.309249   MPKI: 0.001015
PSCL2 LOAD TRANSLATION ACCESS:      11006  HIT:      10803  MISS:        203  HIT %:    98.1556  MISS %:    1.84445   MPKI: 0.001015
PSCL2 TRANSLATION FROM L1D PREFETCHER ACCESS:      54637  HIT:      54637  MISS:          0  HIT %:        100  MISS %:          0   MPKI: 0
PSCL2 PREFETCH  REQUESTED:          0  ISSUED:          0  USEFUL:          0  USELESS:          0
PSCL2 USEFUL LOAD PREFETCHES:          0 PREFETCH ISSUED TO LOWER LEVEL:          0  ACCURACY: -nan
PSCL2 TIMELY PREFETCHES:          0 LATE PREFETCHES: 0 DROPPED PREFETCHES: 0
PSCL2 PREFETCHES SAME FILL-ORIGIN LEVEL: 0 DIFFERENT FILL-ORIGIN LEVEL: 0

LLC TOTAL     ACCESS:    3995922  HIT:    1617635  MISS:    2378287  HIT %:    40.4821  MISS %:    59.5179   MPKI: 11.8914
LLC LOAD      ACCESS:     286616  HIT:      30018  MISS:     256598  HIT %:    10.4732  MISS %:    89.5268   MPKI: 1.28299
LLC RFO       ACCESS:     565406  HIT:      85583  MISS:     479823  HIT %:    15.1366  MISS %:    84.8634   MPKI: 2.39912
LLC PREFETCH  ACCESS:    2004538  HIT:     408582  MISS:    1595956  HIT %:    20.3829  MISS %:    79.6171   MPKI: 7.97978
LLC WRITEBACK ACCESS:    1133971  HIT:    1092731  MISS:      41240  HIT %:    96.3632  MISS %:    3.63678   MPKI: 0.2062
LLC LOAD TRANSLATION ACCESS:       2165  HIT:        275  MISS:       1890  HIT %:    12.7021  MISS %:    87.2979   MPKI: 0.00945
LLC TRANSLATION FROM L1D PREFETCHER ACCESS:       3226  HIT:        446  MISS:       2780  HIT %:    13.8252  MISS %:    86.1748   MPKI: 0.0139
LLC PREFETCH  REQUESTED:          0  ISSUED:          0  USEFUL:     214147  USELESS:    6252734
LLC USEFUL LOAD PREFETCHES:     214147 PREFETCH ISSUED TO LOWER LEVEL:   41860836  ACCURACY: 0.511569
LLC TIMELY PREFETCHES:     214147 LATE PREFETCHES: 0 DROPPED PREFETCHES: 0
LLC PREFETCHES SAME FILL-ORIGIN LEVEL: 0 DIFFERENT FILL-ORIGIN LEVEL: 0
LLC AVERAGE MISS LATENCY: 3343.75 cycles
LLC RQ	ACCESS:    3434628	FORWARD:          0	MERGED:          0	TO_CACHE:    3434623
LLC WQ	ACCESS:    4561807	FORWARD:         43	MERGED:          0	TO_CACHE:    4561807
LLC PQ	ACCESS:    8086458	FORWARD:          0	MERGED:          0	TO_CACHE:    8086420

LLC Dense regions hint to LLC: 0

RAW hits: 327151
Loads Generated: 59115290
Loads sent to L1D: 58788128
Stores Generated: 10855289
Stores sent to L1D: 10855295
Major fault: 0 Minor fault: 10671
Allocated PAGES: 42690

DRAM Statistics
 CHANNEL 0
 RQ ROW_BUFFER_HIT:    2017156  ROW_BUFFER_MISS:    7388962
 DBUS_CONGESTED:         36
 WQ ROW_BUFFER_HIT:     332426  ROW_BUFFER_MISS:    3229292  FULL:        592

 AVG_CONGESTED_CYCLE: 5
 All warmup complete: 5
Channel 0 Bank busy for read cycles: 0
Channel 0 Bank busy for write cycles: 0
Channel 0
Rank 0
0banks busy for read cycles: 24054256
0banks busy for write cycles: 13711
1banks busy for read cycles: 8612051
1banks busy for write cycles: 2096753
2banks busy for read cycles: 8406807
2banks busy for write cycles: 842316
3banks busy for read cycles: 10290031
3banks busy for write cycles: 711716
4banks busy for read cycles: 12381113
4banks busy for write cycles: 693513
5banks busy for read cycles: 15767387
5banks busy for write cycles: 694275
6banks busy for read cycles: 21168527
6banks busy for write cycles: 1041854
7banks busy for read cycles: 34513083
7banks busy for write cycles: 9402156
8banks busy for read cycles: 96841301
8banks busy for write cycles: 80289830

CPU 0 Branch Prediction Accuracy: 99.8677% MPKI: 0.07841 Average ROB Occupancy at Mispredict: 208.332
Branch types
NOT_BRANCH: 193679553 94.0744%
BRANCH_DIRECT_JUMP: 290954 0.141323%
BRANCH_INDIRECT: 13 6.31438e-06%
BRANCH_CONDITIONAL: 11308493 5.49278%
BRANCH_DIRECT_CALL: 300061 0.145746%
BRANCH_INDIRECT_CALL: 0 0%
BRANCH_RETURN: 300060 0.145746%
BRANCH_OTHER: 0 0%


CPU 1 Branch Prediction Accuracy: 99.8677% MPKI: 0.0783177 Average ROB Occupancy at Mispredict: 207.45
Branch types
NOT_BRANCH: 193989789 94.0794%
BRANCH_DIRECT_JUMP: 290960 0.141107%
BRANCH_INDIRECT: 13 6.30462e-06%
BRANCH_CONDITIONAL: 11317116 5.48847%
BRANCH_DIRECT_CALL: 300061 0.145521%
BRANCH_INDIRECT_CALL: 0 0%
BRANCH_RETURN: 300060 0.14552%
BRANCH_OTHER: 0 0%


CPU 2 Branch Prediction Accuracy: 99.8685% MPKI: 0.0790509 Average ROB Occupancy at Mispredict: 208.076
Branch types
NOT_BRANCH: 187976988 93.9885%
BRANCH_DIRECT_JUMP: 290391 0.145196%
BRANCH_INDIRECT: 12 6e-06%
BRANCH_CONDITIONAL: 11132461 5.56623%
BRANCH_DIRECT_CALL: 300051 0.150026%
BRANCH_INDIRECT_CALL: 0 0%
BRANCH_RETURN: 300050 0.150025%
BRANCH_OTHER: 0 0%


CPU 3 Branch Prediction Accuracy: 99.8685% MPKI: 0.079045 Average ROB Occupancy at Mispredict: 208.453
Branch types
NOT_BRANCH: 188073939 93.9895%
BRANCH_DIRECT_JUMP: 290421 0.145137%
BRANCH_INDIRECT: 12 5.99697e-06%
BRANCH_CONDITIONAL: 11136380 5.56538%
BRANCH_DIRECT_CALL: 300051 0.14995%
BRANCH_INDIRECT_CALL: 0 0%
BRANCH_RETURN: 300050 0.149949%
BRANCH_OTHER: 0 0%

DRAM PAGES: 1048576
Allocated PAGES: 42690
