
*** ChampSim Multicore Out-of-Order Simulator ***

Warmup Instructions: 50000000
Simulation Instructions: 200000000
Number of CPUs: 4
LLC sets: 8192
LLC ways: 16
Off-chip DRAM Size: 4096 MB Channels: 1 Width: 64-bit Data Rate: 6400 MT/s
CPU 0 runs ./traces/ligra/ligra_BFS.com-lj.ungraph.gcc_6.3.0_O3.drop_17000M.length_250M.champsimtrace.xz
.xz
CPU 1 runs ./traces/ligra/ligra_BFS.com-lj.ungraph.gcc_6.3.0_O3.drop_17000M.length_250M.champsimtrace.xz
.xz
CPU 2 runs ./traces/ligra/ligra_BFS.com-lj.ungraph.gcc_6.3.0_O3.drop_17000M.length_250M.champsimtrace.xz
.xz
CPU 3 runs ./traces/ligra/ligra_BFS.com-lj.ungraph.gcc_6.3.0_O3.drop_17000M.length_250M.champsimtrace.xz
.xz
BTB has LRU replacement policy
ITLB has LRU replacement policy
DTLB has LRU replacement policy
STLB has LRU replacement policy
L1I has LRU replacement policy
History Sets: 8
History Ways: 16
BERTI Size: 16
BERTI Stride Size: 8
L1D has LRU replacement policy
Initialize SRRIP state for L2C
Initialize DRRIP state for LLC
BTB has LRU replacement policy
ITLB has LRU replacement policy
DTLB has LRU replacement policy
STLB has LRU replacement policy
L1I has LRU replacement policy
History Sets: 8
History Ways: 16
BERTI Size: 16
BERTI Stride Size: 8
L1D has LRU replacement policy
Initialize SRRIP state for L2C
Initialize DRRIP state for LLC
BTB has LRU replacement policy
ITLB has LRU replacement policy
DTLB has LRU replacement policy
STLB has LRU replacement policy
L1I has LRU replacement policy
History Sets: 8
History Ways: 16
BERTI Size: 16
BERTI Stride Size: 8
L1D has LRU replacement policy
Initialize SRRIP state for L2C
Initialize DRRIP state for LLC
BTB has LRU replacement policy
ITLB has LRU replacement policy
DTLB has LRU replacement policy
STLB has LRU replacement policy
L1I has LRU replacement policy
History Sets: 8
History Ways: 16
BERTI Size: 16
BERTI Stride Size: 8
L1D has LRU replacement policy
Initialize SRRIP state for L2C
Initialize DRRIP state for LLC
Heartbeat CPU 0 instructions: 10000002 cycles: 3324421 heartbeat IPC: 3.00804 cumulative IPC: 3.00804 (Simulation time: 0 hr 2 min 15 sec) 
Heartbeat CPU 1 instructions: 10000002 cycles: 3324428 heartbeat IPC: 3.00804 cumulative IPC: 3.00804 (Simulation time: 0 hr 2 min 15 sec) 
Heartbeat CPU 2 instructions: 10000002 cycles: 3324454 heartbeat IPC: 3.00801 cumulative IPC: 3.00801 (Simulation time: 0 hr 2 min 15 sec) 
Heartbeat CPU 3 instructions: 10000002 cycles: 3324457 heartbeat IPC: 3.00801 cumulative IPC: 3.00801 (Simulation time: 0 hr 2 min 15 sec) 
Heartbeat CPU 0 instructions: 20000001 cycles: 6518698 heartbeat IPC: 3.1306 cumulative IPC: 3.0681 (Simulation time: 0 hr 4 min 33 sec) 
Heartbeat CPU 1 instructions: 20000001 cycles: 6518747 heartbeat IPC: 3.13056 cumulative IPC: 3.06807 (Simulation time: 0 hr 4 min 33 sec) 
Heartbeat CPU 3 instructions: 20000001 cycles: 6518871 heartbeat IPC: 3.13046 cumulative IPC: 3.06802 (Simulation time: 0 hr 4 min 33 sec) 
Heartbeat CPU 2 instructions: 20000001 cycles: 6518874 heartbeat IPC: 3.13046 cumulative IPC: 3.06801 (Simulation time: 0 hr 4 min 33 sec) 
Heartbeat CPU 0 instructions: 30000001 cycles: 9621276 heartbeat IPC: 3.22313 cumulative IPC: 3.11809 (Simulation time: 0 hr 7 min 15 sec) 
Heartbeat CPU 1 instructions: 30000001 cycles: 9621334 heartbeat IPC: 3.22312 cumulative IPC: 3.11807 (Simulation time: 0 hr 7 min 15 sec) 
Heartbeat CPU 2 instructions: 30000001 cycles: 9621452 heartbeat IPC: 3.22313 cumulative IPC: 3.11803 (Simulation time: 0 hr 7 min 15 sec) 
Heartbeat CPU 3 instructions: 30000001 cycles: 9621467 heartbeat IPC: 3.22311 cumulative IPC: 3.11803 (Simulation time: 0 hr 7 min 15 sec) 
Heartbeat CPU 0 instructions: 40000000 cycles: 12939885 heartbeat IPC: 3.01331 cumulative IPC: 3.09122 (Simulation time: 0 hr 9 min 22 sec) 
Heartbeat CPU 1 instructions: 40000000 cycles: 12939942 heartbeat IPC: 3.01331 cumulative IPC: 3.0912 (Simulation time: 0 hr 9 min 22 sec) 
Heartbeat CPU 2 instructions: 40000000 cycles: 12940060 heartbeat IPC: 3.01331 cumulative IPC: 3.09118 (Simulation time: 0 hr 9 min 22 sec) 
Heartbeat CPU 3 instructions: 40000000 cycles: 12940077 heartbeat IPC: 3.01331 cumulative IPC: 3.09117 (Simulation time: 0 hr 9 min 22 sec) 
Heartbeat CPU 0 instructions: 50000000 cycles: 16254742 heartbeat IPC: 3.01672 cumulative IPC: 3.07603 (Simulation time: 0 hr 11 min 41 sec) 
Heartbeat CPU 1 instructions: 50000000 cycles: 16254747 heartbeat IPC: 3.01677 cumulative IPC: 3.07602 (Simulation time: 0 hr 11 min 41 sec) 
Heartbeat CPU 2 instructions: 50000000 cycles: 16254857 heartbeat IPC: 3.01678 cumulative IPC: 3.076 (Simulation time: 0 hr 11 min 41 sec) 
Heartbeat CPU 3 instructions: 50000000 cycles: 16254874 heartbeat IPC: 3.01678 cumulative IPC: 3.076 (Simulation time: 0 hr 11 min 41 sec) 

Warmup complete CPU 0 instructions: 50000384 cycles: 16254875 (Simulation time: 0 hr 11 min 41 sec) 
Warmup complete CPU 1 instructions: 50000370 cycles: 16254875 (Simulation time: 0 hr 11 min 41 sec) 
Warmup complete CPU 2 instructions: 50000042 cycles: 16254875 (Simulation time: 0 hr 11 min 41 sec) 
Warmup complete CPU 3 instructions: 50000001 cycles: 16254875 (Simulation time: 0 hr 11 min 41 sec) 

Heartbeat CPU 1 instructions: 60000001 cycles: 44954107 heartbeat IPC: 0.34844 cumulative IPC: 0.348429 (Simulation time: 0 hr 16 min 56 sec) 
Heartbeat CPU 2 instructions: 60000003 cycles: 44960680 heartbeat IPC: 0.348361 cumulative IPC: 0.34836 (Simulation time: 0 hr 16 min 56 sec) 
Heartbeat CPU 3 instructions: 60000003 cycles: 45031906 heartbeat IPC: 0.347499 cumulative IPC: 0.347499 (Simulation time: 0 hr 16 min 58 sec) 
Heartbeat CPU 0 instructions: 60000001 cycles: 45538358 heartbeat IPC: 0.341488 cumulative IPC: 0.341476 (Simulation time: 0 hr 17 min 8 sec) 
Heartbeat CPU 1 instructions: 70000003 cycles: 71732046 heartbeat IPC: 0.373442 cumulative IPC: 0.360502 (Simulation time: 0 hr 22 min 7 sec) 
Heartbeat CPU 2 instructions: 70000000 cycles: 71946471 heartbeat IPC: 0.370565 cumulative IPC: 0.35912 (Simulation time: 0 hr 22 min 10 sec) 
Heartbeat CPU 3 instructions: 70000000 cycles: 72001288 heartbeat IPC: 0.370791 cumulative IPC: 0.358767 (Simulation time: 0 hr 22 min 11 sec) 
Heartbeat CPU 0 instructions: 70000000 cycles: 72440034 heartbeat IPC: 0.371724 cumulative IPC: 0.355959 (Simulation time: 0 hr 22 min 17 sec) 
Heartbeat CPU 3 instructions: 80000003 cycles: 98803188 heartbeat IPC: 0.373108 cumulative IPC: 0.363424 (Simulation time: 0 hr 27 min 16 sec) 
Heartbeat CPU 1 instructions: 80000003 cycles: 98835903 heartbeat IPC: 0.368951 cumulative IPC: 0.363275 (Simulation time: 0 hr 27 min 17 sec) 
Heartbeat CPU 2 instructions: 80000003 cycles: 99031512 heartbeat IPC: 0.369208 cumulative IPC: 0.362421 (Simulation time: 0 hr 27 min 21 sec) 
Heartbeat CPU 0 instructions: 80000000 cycles: 99103788 heartbeat IPC: 0.375041 cumulative IPC: 0.3621 (Simulation time: 0 hr 27 min 22 sec) 
Heartbeat CPU 3 instructions: 90000003 cycles: 124642170 heartbeat IPC: 0.387012 cumulative IPC: 0.369047 (Simulation time: 0 hr 32 min 11 sec) 
Heartbeat CPU 1 instructions: 90000000 cycles: 124853486 heartbeat IPC: 0.384355 cumulative IPC: 0.368325 (Simulation time: 0 hr 32 min 14 sec) 
Heartbeat CPU 0 instructions: 90000000 cycles: 124956402 heartbeat IPC: 0.386808 cumulative IPC: 0.367977 (Simulation time: 0 hr 32 min 15 sec) 
Heartbeat CPU 2 instructions: 90000003 cycles: 125024124 heartbeat IPC: 0.384725 cumulative IPC: 0.367751 (Simulation time: 0 hr 32 min 16 sec) 
Heartbeat CPU 3 instructions: 100000001 cycles: 150264114 heartbeat IPC: 0.39029 cumulative IPC: 0.373109 (Simulation time: 0 hr 37 min 5 sec) 
Heartbeat CPU 2 instructions: 100000001 cycles: 150674877 heartbeat IPC: 0.389852 cumulative IPC: 0.371968 (Simulation time: 0 hr 37 min 13 sec) 
Heartbeat CPU 1 instructions: 100000001 cycles: 150788014 heartbeat IPC: 0.385586 cumulative IPC: 0.371653 (Simulation time: 0 hr 37 min 15 sec) 
Heartbeat CPU 0 instructions: 100000001 cycles: 150862000 heartbeat IPC: 0.386017 cumulative IPC: 0.371449 (Simulation time: 0 hr 37 min 16 sec) 
Heartbeat CPU 3 instructions: 110000000 cycles: 180359162 heartbeat IPC: 0.332281 cumulative IPC: 0.365621 (Simulation time: 0 hr 42 min 34 sec) 
Heartbeat CPU 2 instructions: 110000000 cycles: 180430826 heartbeat IPC: 0.336067 cumulative IPC: 0.365461 (Simulation time: 0 hr 42 min 35 sec) 
Heartbeat CPU 0 instructions: 110000000 cycles: 180760378 heartbeat IPC: 0.334466 cumulative IPC: 0.364727 (Simulation time: 0 hr 42 min 40 sec) 
Heartbeat CPU 1 instructions: 110000000 cycles: 181146173 heartbeat IPC: 0.329401 cumulative IPC: 0.363874 (Simulation time: 0 hr 42 min 46 sec) 
Heartbeat CPU 2 instructions: 120000002 cycles: 202931978 heartbeat IPC: 0.444422 cumulative IPC: 0.374979 (Simulation time: 0 hr 47 min 5 sec) 
Heartbeat CPU 3 instructions: 120000002 cycles: 203180587 heartbeat IPC: 0.438185 cumulative IPC: 0.37448 (Simulation time: 0 hr 47 min 9 sec) 
Heartbeat CPU 0 instructions: 120000002 cycles: 203345600 heartbeat IPC: 0.442768 cumulative IPC: 0.374148 (Simulation time: 0 hr 47 min 11 sec) 
Heartbeat CPU 1 instructions: 120000002 cycles: 204225576 heartbeat IPC: 0.433287 cumulative IPC: 0.372396 (Simulation time: 0 hr 47 min 24 sec) 
Heartbeat CPU 3 instructions: 130000003 cycles: 225883821 heartbeat IPC: 0.440466 cumulative IPC: 0.381627 (Simulation time: 0 hr 51 min 36 sec) 
Heartbeat CPU 0 instructions: 130000003 cycles: 226007313 heartbeat IPC: 0.441273 cumulative IPC: 0.3814 (Simulation time: 0 hr 51 min 38 sec) 
Heartbeat CPU 2 instructions: 130000003 cycles: 226095699 heartbeat IPC: 0.43171 cumulative IPC: 0.381241 (Simulation time: 0 hr 51 min 40 sec) 
Heartbeat CPU 1 instructions: 130000003 cycles: 227017792 heartbeat IPC: 0.438746 cumulative IPC: 0.379572 (Simulation time: 0 hr 51 min 55 sec) 
Heartbeat CPU 0 instructions: 140000000 cycles: 252454700 heartbeat IPC: 0.378109 cumulative IPC: 0.381032 (Simulation time: 0 hr 56 min 41 sec) 
Heartbeat CPU 3 instructions: 140000000 cycles: 252655837 heartbeat IPC: 0.373524 cumulative IPC: 0.380709 (Simulation time: 0 hr 56 min 44 sec) 
Heartbeat CPU 2 instructions: 140000000 cycles: 252824906 heartbeat IPC: 0.374122 cumulative IPC: 0.380437 (Simulation time: 0 hr 56 min 47 sec) 
Heartbeat CPU 1 instructions: 140000000 cycles: 253781275 heartbeat IPC: 0.373643 cumulative IPC: 0.378904 (Simulation time: 0 hr 57 min 4 sec) 
Heartbeat CPU 0 instructions: 150000002 cycles: 275027281 heartbeat IPC: 0.443015 cumulative IPC: 0.386438 (Simulation time: 1 hr 1 min 22 sec) 
Heartbeat CPU 3 instructions: 150000002 cycles: 275213580 heartbeat IPC: 0.443307 cumulative IPC: 0.386162 (Simulation time: 1 hr 1 min 24 sec) 
Heartbeat CPU 2 instructions: 150000002 cycles: 275480616 heartbeat IPC: 0.44139 cumulative IPC: 0.385764 (Simulation time: 1 hr 1 min 27 sec) 
Heartbeat CPU 1 instructions: 150000002 cycles: 276933097 heartbeat IPC: 0.431932 cumulative IPC: 0.383613 (Simulation time: 1 hr 1 min 37 sec) 
Heartbeat CPU 0 instructions: 160000000 cycles: 300285673 heartbeat IPC: 0.395908 cumulative IPC: 0.387281 (Simulation time: 1 hr 6 min 0 sec) 
Heartbeat CPU 3 instructions: 160000000 cycles: 300434982 heartbeat IPC: 0.396489 cumulative IPC: 0.387078 (Simulation time: 1 hr 6 min 2 sec) 
Heartbeat CPU 2 instructions: 160000000 cycles: 300648003 heartbeat IPC: 0.39734 cumulative IPC: 0.386788 (Simulation time: 1 hr 6 min 6 sec) 
Heartbeat CPU 1 instructions: 160000003 cycles: 302313998 heartbeat IPC: 0.393997 cumulative IPC: 0.384535 (Simulation time: 1 hr 6 min 33 sec) 
Heartbeat CPU 0 instructions: 170000002 cycles: 323177612 heartbeat IPC: 0.436835 cumulative IPC: 0.390977 (Simulation time: 1 hr 10 min 57 sec) 
Heartbeat CPU 3 instructions: 170000002 cycles: 323396173 heartbeat IPC: 0.435518 cumulative IPC: 0.3907 (Simulation time: 1 hr 11 min 1 sec) 
Heartbeat CPU 2 instructions: 170000002 cycles: 323640833 heartbeat IPC: 0.434918 cumulative IPC: 0.390389 (Simulation time: 1 hr 11 min 5 sec) 
Heartbeat CPU 1 instructions: 170000002 cycles: 325518457 heartbeat IPC: 0.430952 cumulative IPC: 0.388017 (Simulation time: 1 hr 11 min 37 sec) 
Heartbeat CPU 0 instructions: 180000000 cycles: 353849949 heartbeat IPC: 0.326027 cumulative IPC: 0.385076 (Simulation time: 1 hr 16 min 24 sec) 
Heartbeat CPU 3 instructions: 180000000 cycles: 354323434 heartbeat IPC: 0.323339 cumulative IPC: 0.384537 (Simulation time: 1 hr 16 min 26 sec) 
Heartbeat CPU 2 instructions: 180000000 cycles: 354542230 heartbeat IPC: 0.32361 cumulative IPC: 0.384289 (Simulation time: 1 hr 16 min 27 sec) 
Heartbeat CPU 1 instructions: 180000000 cycles: 357442703 heartbeat IPC: 0.313241 cumulative IPC: 0.381021 (Simulation time: 1 hr 17 min 0 sec) 
Heartbeat CPU 0 instructions: 190000000 cycles: 375837375 heartbeat IPC: 0.454805 cumulative IPC: 0.389339 (Simulation time: 1 hr 20 min 56 sec) 
Heartbeat CPU 3 instructions: 190000000 cycles: 376198264 heartbeat IPC: 0.457146 cumulative IPC: 0.38895 (Simulation time: 1 hr 21 min 2 sec) 
Heartbeat CPU 2 instructions: 190000000 cycles: 376321345 heartbeat IPC: 0.459155 cumulative IPC: 0.388817 (Simulation time: 1 hr 21 min 4 sec) 
Heartbeat CPU 1 instructions: 190000000 cycles: 379642773 heartbeat IPC: 0.450449 cumulative IPC: 0.385262 (Simulation time: 1 hr 21 min 35 sec) 
Heartbeat CPU 0 instructions: 200000003 cycles: 402204040 heartbeat IPC: 0.379267 cumulative IPC: 0.388651 (Simulation time: 1 hr 25 min 53 sec) 
Heartbeat CPU 3 instructions: 200000003 cycles: 402516403 heartbeat IPC: 0.379966 cumulative IPC: 0.388338 (Simulation time: 1 hr 25 min 57 sec) 
Heartbeat CPU 2 instructions: 200000003 cycles: 402929421 heartbeat IPC: 0.375826 cumulative IPC: 0.387923 (Simulation time: 1 hr 26 min 2 sec) 
Heartbeat CPU 1 instructions: 200000003 cycles: 405873639 heartbeat IPC: 0.38123 cumulative IPC: 0.384991 (Simulation time: 1 hr 26 min 48 sec) 
Heartbeat CPU 0 instructions: 210000002 cycles: 428668897 heartbeat IPC: 0.37786 cumulative IPC: 0.387959 (Simulation time: 1 hr 30 min 16 sec) 
Heartbeat CPU 3 instructions: 210000002 cycles: 429198096 heartbeat IPC: 0.374789 cumulative IPC: 0.387462 (Simulation time: 1 hr 30 min 22 sec) 
Heartbeat CPU 2 instructions: 210000002 cycles: 429666087 heartbeat IPC: 0.374018 cumulative IPC: 0.387024 (Simulation time: 1 hr 30 min 27 sec) 
Heartbeat CPU 1 instructions: 210000002 cycles: 433065587 heartbeat IPC: 0.367756 cumulative IPC: 0.383866 (Simulation time: 1 hr 31 min 9 sec) 
Heartbeat CPU 0 instructions: 220000000 cycles: 450707988 heartbeat IPC: 0.453739 cumulative IPC: 0.391296 (Simulation time: 1 hr 34 min 41 sec) 
Heartbeat CPU 3 instructions: 220000000 cycles: 451164393 heartbeat IPC: 0.455243 cumulative IPC: 0.390886 (Simulation time: 1 hr 34 min 48 sec) 
Heartbeat CPU 2 instructions: 220000000 cycles: 451641133 heartbeat IPC: 0.455062 cumulative IPC: 0.390458 (Simulation time: 1 hr 34 min 53 sec) 
Heartbeat CPU 1 instructions: 220000000 cycles: 456687316 heartbeat IPC: 0.423339 cumulative IPC: 0.385983 (Simulation time: 1 hr 35 min 36 sec) 
Heartbeat CPU 0 instructions: 230000000 cycles: 477114623 heartbeat IPC: 0.378693 cumulative IPC: 0.390574 (Simulation time: 1 hr 39 min 24 sec) 
Heartbeat CPU 3 instructions: 230000000 cycles: 477549930 heartbeat IPC: 0.378996 cumulative IPC: 0.390206 (Simulation time: 1 hr 39 min 30 sec) 
Heartbeat CPU 2 instructions: 230000000 cycles: 478080393 heartbeat IPC: 0.378225 cumulative IPC: 0.389757 (Simulation time: 1 hr 39 min 38 sec) 
Heartbeat CPU 1 instructions: 230000000 cycles: 482366971 heartbeat IPC: 0.389413 cumulative IPC: 0.386172 (Simulation time: 1 hr 40 min 36 sec) 
Heartbeat CPU 0 instructions: 240000003 cycles: 503464039 heartbeat IPC: 0.379515 cumulative IPC: 0.389975 (Simulation time: 1 hr 44 min 27 sec) 
Heartbeat CPU 3 instructions: 240000003 cycles: 504277008 heartbeat IPC: 0.374153 cumulative IPC: 0.389327 (Simulation time: 1 hr 44 min 38 sec) 
Heartbeat CPU 2 instructions: 240000003 cycles: 505021156 heartbeat IPC: 0.371185 cumulative IPC: 0.388734 (Simulation time: 1 hr 44 min 49 sec) 
Heartbeat CPU 1 instructions: 240000003 cycles: 508416735 heartbeat IPC: 0.383881 cumulative IPC: 0.386051 (Simulation time: 1 hr 45 min 44 sec) 
*** Reached end of trace for Core: 0 Repeating trace: ./traces/ligra/ligra_BFS.com-lj.ungraph.gcc_6.3.0_O3.drop_17000M.length_250M.champsimtrace.xz
Heartbeat CPU 0 instructions: 250000001 cycles: 526082134 heartbeat IPC: 0.442124 cumulative IPC: 0.392289 (Simulation time: 1 hr 49 min 14 sec) 
Finished CPU 0 instructions: 200000000 cycles: 509833145 cumulative IPC: 0.392285 (Simulation time: 1 hr 49 min 14 sec) 
*** Reached end of trace for Core: 3 Repeating trace: ./traces/ligra/ligra_BFS.com-lj.ungraph.gcc_6.3.0_O3.drop_17000M.length_250M.champsimtrace.xz
Heartbeat CPU 3 instructions: 250000002 cycles: 527011937 heartbeat IPC: 0.439852 cumulative IPC: 0.391576 (Simulation time: 1 hr 49 min 30 sec) 
Finished CPU 3 instructions: 200000001 cycles: 510757062 cumulative IPC: 0.391576 (Simulation time: 1 hr 49 min 30 sec) 
*** Reached end of trace for Core: 2 Repeating trace: ./traces/ligra/ligra_BFS.com-lj.ungraph.gcc_6.3.0_O3.drop_17000M.length_250M.champsimtrace.xz
Heartbeat CPU 2 instructions: 250000001 cycles: 527381945 heartbeat IPC: 0.447211 cumulative IPC: 0.391292 (Simulation time: 1 hr 49 min 36 sec) 
Finished CPU 2 instructions: 200000003 cycles: 511129878 cumulative IPC: 0.39129 (Simulation time: 1 hr 49 min 36 sec) 
*** Reached end of trace for Core: 1 Repeating trace: ./traces/ligra/ligra_BFS.com-lj.ungraph.gcc_6.3.0_O3.drop_17000M.length_250M.champsimtrace.xz
Heartbeat CPU 1 instructions: 250000002 cycles: 531267441 heartbeat IPC: 0.437623 cumulative IPC: 0.388339 (Simulation time: 1 hr 50 min 28 sec) 
Finished CPU 1 instructions: 200000002 cycles: 515018058 cumulative IPC: 0.388336 (Simulation time: 1 hr 50 min 28 sec) 

ChampSim completed all CPUs

Total Simulation Statistics (not including warmup)

CPU 0 cumulative IPC: 0.394084 instructions: 202960612 cycles: 515018058
ITLB TOTAL     ACCESS:   36779240  HIT:   36779240  MISS:          0  HIT %:        100  MISS %:          0   MPKI: 0
ITLB LOAD      ACCESS:          0  HIT:          0  MISS:          0  HIT %:       -nan  MISS %:       -nan   MPKI: 0
ITLB RFO       ACCESS:          0  HIT:          0  MISS:          0  HIT %:       -nan  MISS %:       -nan   MPKI: 0
ITLB PREFETCH  ACCESS:          0  HIT:          0  MISS:          0  HIT %:       -nan  MISS %:       -nan   MPKI: 0
ITLB WRITEBACK ACCESS:          0  HIT:          0  MISS:          0  HIT %:       -nan  MISS %:       -nan   MPKI: 0
DTLB TOTAL     ACCESS:   55761062  HIT:   55655403  MISS:     105659  HIT %:    99.8105  MISS %:   0.189485   MPKI: 0.520589
DTLB LOAD      ACCESS:          0  HIT:          0  MISS:          0  HIT %:       -nan  MISS %:       -nan   MPKI: 0
DTLB RFO       ACCESS:          0  HIT:          0  MISS:          0  HIT %:       -nan  MISS %:       -nan   MPKI: 0
DTLB PREFETCH  ACCESS:          0  HIT:          0  MISS:          0  HIT %:       -nan  MISS %:       -nan   MPKI: 0
DTLB WRITEBACK ACCESS:          0  HIT:          0  MISS:          0  HIT %:       -nan  MISS %:       -nan   MPKI: 0
STLB TOTAL     ACCESS:   15077758  HIT:   15057225  MISS:      20533  HIT %:    99.8638  MISS %:   0.136181   MPKI: 0.101167
STLB LOAD      ACCESS:          0  HIT:          0  MISS:          0  HIT %:       -nan  MISS %:       -nan   MPKI: 0
STLB RFO       ACCESS:          0  HIT:          0  MISS:          0  HIT %:       -nan  MISS %:       -nan   MPKI: 0
STLB PREFETCH  ACCESS:          0  HIT:          0  MISS:          0  HIT %:       -nan  MISS %:       -nan   MPKI: 0
STLB WRITEBACK ACCESS:          0  HIT:          0  MISS:          0  HIT %:       -nan  MISS %:       -nan   MPKI: 0
L1D TOTAL     ACCESS:  101749010  HIT:   96715313  MISS:    5033697  HIT %:    95.0528  MISS %:    4.94717   MPKI: 24.8013
L1D LOAD      ACCESS:   26599875  HIT:   24327596  MISS:    2272279  HIT %:    91.4576  MISS %:    8.54244   MPKI: 11.1957
L1D RFO       ACCESS:   31806858  HIT:   29582134  MISS:    2224724  HIT %:    93.0055  MISS %:    6.99448   MPKI: 10.9614
L1D PREFETCH  ACCESS:   43342277  HIT:   42805583  MISS:     536694  HIT %:    98.7617  MISS %:    1.23827   MPKI: 2.64433
L1D WRITEBACK ACCESS:          0  HIT:          0  MISS:          0  HIT %:       -nan  MISS %:       -nan   MPKI: 0
L1I TOTAL     ACCESS:   36960618  HIT:   36960618  MISS:          0  HIT %:        100  MISS %:          0   MPKI: 0
L1I LOAD      ACCESS:   36960618  HIT:   36960618  MISS:          0  HIT %:        100  MISS %:          0   MPKI: 0
L1I RFO       ACCESS:          0  HIT:          0  MISS:          0  HIT %:       -nan  MISS %:       -nan   MPKI: 0
L1I PREFETCH  ACCESS:          0  HIT:          0  MISS:          0  HIT %:       -nan  MISS %:       -nan   MPKI: 0
L1I WRITEBACK ACCESS:          0  HIT:          0  MISS:          0  HIT %:       -nan  MISS %:       -nan   MPKI: 0
L2C TOTAL     ACCESS:   17034373  HIT:   12639968  MISS:    4394405  HIT %:    74.2027  MISS %:    25.7973   MPKI: 21.6515
L2C LOAD      ACCESS:    2252849  HIT:    1394872  MISS:     857977  HIT %:    61.9159  MISS %:    38.0841   MPKI: 4.22731
L2C RFO       ACCESS:    2224655  HIT:     131122  MISS:    2093533  HIT %:    5.89404  MISS %:     94.106   MPKI: 10.315
L2C PREFETCH  ACCESS:   10246339  HIT:    8963810  MISS:    1282529  HIT %:    87.4831  MISS %:    12.5169   MPKI: 6.3191
L2C WRITEBACK ACCESS:    2233138  HIT:    2076803  MISS:     156335  HIT %:    92.9993  MISS %:    7.00069   MPKI: 0.770273
PSCL5 TOTAL     ACCESS:      77384  HIT:      77384  MISS:          0  HIT %:        100  MISS %:          0   MPKI: 0
PSCL5 LOAD      ACCESS:          0  HIT:          0  MISS:          0  HIT %:       -nan  MISS %:       -nan   MPKI: 0
PSCL5 RFO       ACCESS:          0  HIT:          0  MISS:          0  HIT %:       -nan  MISS %:       -nan   MPKI: 0
PSCL5 PREFETCH  ACCESS:          0  HIT:          0  MISS:          0  HIT %:       -nan  MISS %:       -nan   MPKI: 0
PSCL5 WRITEBACK ACCESS:          0  HIT:          0  MISS:          0  HIT %:       -nan  MISS %:       -nan   MPKI: 0
PSCL4 TOTAL     ACCESS:      77384  HIT:      77384  MISS:          0  HIT %:        100  MISS %:          0   MPKI: 0
PSCL4 LOAD      ACCESS:          0  HIT:          0  MISS:          0  HIT %:       -nan  MISS %:       -nan   MPKI: 0
PSCL4 RFO       ACCESS:          0  HIT:          0  MISS:          0  HIT %:       -nan  MISS %:       -nan   MPKI: 0
PSCL4 PREFETCH  ACCESS:          0  HIT:          0  MISS:          0  HIT %:       -nan  MISS %:       -nan   MPKI: 0
PSCL4 WRITEBACK ACCESS:          0  HIT:          0  MISS:          0  HIT %:       -nan  MISS %:       -nan   MPKI: 0
PSCL3 TOTAL     ACCESS:      77384  HIT:      77384  MISS:          0  HIT %:        100  MISS %:          0   MPKI: 0
PSCL3 LOAD      ACCESS:          0  HIT:          0  MISS:          0  HIT %:       -nan  MISS %:       -nan   MPKI: 0
PSCL3 RFO       ACCESS:          0  HIT:          0  MISS:          0  HIT %:       -nan  MISS %:       -nan   MPKI: 0
PSCL3 PREFETCH  ACCESS:          0  HIT:          0  MISS:          0  HIT %:       -nan  MISS %:       -nan   MPKI: 0
PSCL3 WRITEBACK ACCESS:          0  HIT:          0  MISS:          0  HIT %:       -nan  MISS %:       -nan   MPKI: 0
PSCL2 TOTAL     ACCESS:      77361  HIT:      77324  MISS:         37  HIT %:    99.9522  MISS %:  0.0478277   MPKI: 0.000182301
PSCL2 LOAD      ACCESS:          0  HIT:          0  MISS:          0  HIT %:       -nan  MISS %:       -nan   MPKI: 0
PSCL2 RFO       ACCESS:          0  HIT:          0  MISS:          0  HIT %:       -nan  MISS %:       -nan   MPKI: 0
PSCL2 PREFETCH  ACCESS:          0  HIT:          0  MISS:          0  HIT %:       -nan  MISS %:       -nan   MPKI: 0
PSCL2 WRITEBACK ACCESS:          0  HIT:          0  MISS:          0  HIT %:       -nan  MISS %:       -nan   MPKI: 0
LLC TOTAL     ACCESS:    6344563  HIT:    2493726  MISS:    3850837  HIT %:    39.3049  MISS %:    60.6951   MPKI: 18.9733
LLC LOAD      ACCESS:     262534  HIT:      48430  MISS:     214104  HIT %:    18.4471  MISS %:    81.5529   MPKI: 1.0549
LLC RFO       ACCESS:    2093012  HIT:     141369  MISS:    1951643  HIT %:    6.75433  MISS %:    93.2457   MPKI: 9.61587
LLC PREFETCH  ACCESS:    1878490  HIT:     279921  MISS:    1598569  HIT %:    14.9014  MISS %:    85.0986   MPKI: 7.87625
LLC WRITEBACK ACCESS:    2106496  HIT:    2023186  MISS:      83310  HIT %:    96.0451  MISS %:    3.95491   MPKI: 0.410474

RAW hits: 2749163
Loads Generated: 51926447
Loads sent to L1D: 49177284
Stores Generated: 43571940
Stores sent to L1D: 43571915

CPU 1 cumulative IPC: 0.388336 instructions: 200000002 cycles: 515018058
ITLB TOTAL     ACCESS:   36283929  HIT:   36283929  MISS:          0  HIT %:        100  MISS %:          0   MPKI: 0
ITLB LOAD      ACCESS:          0  HIT:          0  MISS:          0  HIT %:       -nan  MISS %:       -nan   MPKI: 0
ITLB RFO       ACCESS:          0  HIT:          0  MISS:          0  HIT %:       -nan  MISS %:       -nan   MPKI: 0
ITLB PREFETCH  ACCESS:          0  HIT:          0  MISS:          0  HIT %:       -nan  MISS %:       -nan   MPKI: 0
ITLB WRITEBACK ACCESS:          0  HIT:          0  MISS:          0  HIT %:       -nan  MISS %:       -nan   MPKI: 0
DTLB TOTAL     ACCESS:   54796369  HIT:   54691276  MISS:     105093  HIT %:    99.8082  MISS %:   0.191788   MPKI: 0.525465
DTLB LOAD      ACCESS:          0  HIT:          0  MISS:          0  HIT %:       -nan  MISS %:       -nan   MPKI: 0
DTLB RFO       ACCESS:          0  HIT:          0  MISS:          0  HIT %:       -nan  MISS %:       -nan   MPKI: 0
DTLB PREFETCH  ACCESS:          0  HIT:          0  MISS:          0  HIT %:       -nan  MISS %:       -nan   MPKI: 0
DTLB WRITEBACK ACCESS:          0  HIT:          0  MISS:          0  HIT %:       -nan  MISS %:       -nan   MPKI: 0
STLB TOTAL     ACCESS:   14529870  HIT:   14509908  MISS:      19962  HIT %:    99.8626  MISS %:   0.137386   MPKI: 0.09981
STLB LOAD      ACCESS:          0  HIT:          0  MISS:          0  HIT %:       -nan  MISS %:       -nan   MPKI: 0
STLB RFO       ACCESS:          0  HIT:          0  MISS:          0  HIT %:       -nan  MISS %:       -nan   MPKI: 0
STLB PREFETCH  ACCESS:          0  HIT:          0  MISS:          0  HIT %:       -nan  MISS %:       -nan   MPKI: 0
STLB WRITEBACK ACCESS:          0  HIT:          0  MISS:          0  HIT %:       -nan  MISS %:       -nan   MPKI: 0
L1D TOTAL     ACCESS:   98682629  HIT:   93701164  MISS:    4981465  HIT %:     94.952  MISS %:    5.04797   MPKI: 24.9073
L1D LOAD      ACCESS:   26071963  HIT:   23794292  MISS:    2277671  HIT %:    91.2639  MISS %:    8.73609   MPKI: 11.3884
L1D RFO       ACCESS:   31319320  HIT:   29116879  MISS:    2202441  HIT %:    92.9678  MISS %:    7.03221   MPKI: 11.0122
L1D PREFETCH  ACCESS:   41291346  HIT:   40789993  MISS:     501353  HIT %:    98.7858  MISS %:    1.21418   MPKI: 2.50676
L1D WRITEBACK ACCESS:          0  HIT:          0  MISS:          0  HIT %:       -nan  MISS %:       -nan   MPKI: 0
L1I TOTAL     ACCESS:   36449520  HIT:   36449520  MISS:          0  HIT %:        100  MISS %:          0   MPKI: 0
L1I LOAD      ACCESS:   36449520  HIT:   36449520  MISS:          0  HIT %:        100  MISS %:          0   MPKI: 0
L1I RFO       ACCESS:          0  HIT:          0  MISS:          0  HIT %:       -nan  MISS %:       -nan   MPKI: 0
L1I PREFETCH  ACCESS:          0  HIT:          0  MISS:          0  HIT %:       -nan  MISS %:       -nan   MPKI: 0
L1I WRITEBACK ACCESS:          0  HIT:          0  MISS:          0  HIT %:       -nan  MISS %:       -nan   MPKI: 0
L2C TOTAL     ACCESS:   16478590  HIT:   12130203  MISS:    4348387  HIT %:    73.6119  MISS %:    26.3881   MPKI: 21.7419
L2C LOAD      ACCESS:    2259553  HIT:    1402577  MISS:     856976  HIT %:    62.0732  MISS %:    37.9268   MPKI: 4.28488
L2C RFO       ACCESS:    2202387  HIT:     126941  MISS:    2075446  HIT %:    5.76379  MISS %:    94.2362   MPKI: 10.3772
L2C PREFETCH  ACCESS:    9729232  HIT:    8469018  MISS:    1260214  HIT %:    87.0471  MISS %:    12.9529   MPKI: 6.30107
L2C WRITEBACK ACCESS:    2208512  HIT:    2056640  MISS:     151872  HIT %:    93.1233  MISS %:    6.87667   MPKI: 0.75936
PSCL5 TOTAL     ACCESS:      78901  HIT:      78901  MISS:          0  HIT %:        100  MISS %:          0   MPKI: 0
PSCL5 LOAD      ACCESS:          0  HIT:          0  MISS:          0  HIT %:       -nan  MISS %:       -nan   MPKI: 0
PSCL5 RFO       ACCESS:          0  HIT:          0  MISS:          0  HIT %:       -nan  MISS %:       -nan   MPKI: 0
PSCL5 PREFETCH  ACCESS:          0  HIT:          0  MISS:          0  HIT %:       -nan  MISS %:       -nan   MPKI: 0
PSCL5 WRITEBACK ACCESS:          0  HIT:          0  MISS:          0  HIT %:       -nan  MISS %:       -nan   MPKI: 0
PSCL4 TOTAL     ACCESS:      78901  HIT:      78901  MISS:          0  HIT %:        100  MISS %:          0   MPKI: 0
PSCL4 LOAD      ACCESS:          0  HIT:          0  MISS:          0  HIT %:       -nan  MISS %:       -nan   MPKI: 0
PSCL4 RFO       ACCESS:          0  HIT:          0  MISS:          0  HIT %:       -nan  MISS %:       -nan   MPKI: 0
PSCL4 PREFETCH  ACCESS:          0  HIT:          0  MISS:          0  HIT %:       -nan  MISS %:       -nan   MPKI: 0
PSCL4 WRITEBACK ACCESS:          0  HIT:          0  MISS:          0  HIT %:       -nan  MISS %:       -nan   MPKI: 0
PSCL3 TOTAL     ACCESS:      78901  HIT:      78901  MISS:          0  HIT %:        100  MISS %:          0   MPKI: 0
PSCL3 LOAD      ACCESS:          0  HIT:          0  MISS:          0  HIT %:       -nan  MISS %:       -nan   MPKI: 0
PSCL3 RFO       ACCESS:          0  HIT:          0  MISS:          0  HIT %:       -nan  MISS %:       -nan   MPKI: 0
PSCL3 PREFETCH  ACCESS:          0  HIT:          0  MISS:          0  HIT %:       -nan  MISS %:       -nan   MPKI: 0
PSCL3 WRITEBACK ACCESS:          0  HIT:          0  MISS:          0  HIT %:       -nan  MISS %:       -nan   MPKI: 0
PSCL2 TOTAL     ACCESS:      78878  HIT:      78843  MISS:         35  HIT %:    99.9556  MISS %:  0.0443723   MPKI: 0.000175
PSCL2 LOAD      ACCESS:          0  HIT:          0  MISS:          0  HIT %:       -nan  MISS %:       -nan   MPKI: 0
PSCL2 RFO       ACCESS:          0  HIT:          0  MISS:          0  HIT %:       -nan  MISS %:       -nan   MPKI: 0
PSCL2 PREFETCH  ACCESS:          0  HIT:          0  MISS:          0  HIT %:       -nan  MISS %:       -nan   MPKI: 0
PSCL2 WRITEBACK ACCESS:          0  HIT:          0  MISS:          0  HIT %:       -nan  MISS %:       -nan   MPKI: 0
LLC TOTAL     ACCESS:    6282846  HIT:    2441564  MISS:    3841282  HIT %:    38.8608  MISS %:    61.1392   MPKI: 19.2064
LLC LOAD      ACCESS:     254550  HIT:      40473  MISS:     214077  HIT %:    15.8998  MISS %:    84.1002   MPKI: 1.07038
LLC RFO       ACCESS:    2074977  HIT:     146060  MISS:    1928917  HIT %:    7.03911  MISS %:    92.9609   MPKI: 9.64458
LLC PREFETCH  ACCESS:    1863109  HIT:     257597  MISS:    1605512  HIT %:    13.8262  MISS %:    86.1738   MPKI: 8.02756
LLC WRITEBACK ACCESS:    2086331  HIT:    1996671  MISS:      89660  HIT %:    95.7025  MISS %:     4.2975   MPKI: 0.4483

RAW hits: 2687021
Loads Generated: 51115611
Loads sent to L1D: 48428585
Stores Generated: 42905845
Stores sent to L1D: 42905828

CPU 2 cumulative IPC: 0.392651 instructions: 202222410 cycles: 515018058
ITLB TOTAL     ACCESS:   36650677  HIT:   36650677  MISS:          0  HIT %:        100  MISS %:          0   MPKI: 0
ITLB LOAD      ACCESS:          0  HIT:          0  MISS:          0  HIT %:       -nan  MISS %:       -nan   MPKI: 0
ITLB RFO       ACCESS:          0  HIT:          0  MISS:          0  HIT %:       -nan  MISS %:       -nan   MPKI: 0
ITLB PREFETCH  ACCESS:          0  HIT:          0  MISS:          0  HIT %:       -nan  MISS %:       -nan   MPKI: 0
ITLB WRITEBACK ACCESS:          0  HIT:          0  MISS:          0  HIT %:       -nan  MISS %:       -nan   MPKI: 0
DTLB TOTAL     ACCESS:   55612124  HIT:   55506607  MISS:     105517  HIT %:    99.8103  MISS %:   0.189737   MPKI: 0.521787
DTLB LOAD      ACCESS:          0  HIT:          0  MISS:          0  HIT %:       -nan  MISS %:       -nan   MPKI: 0
DTLB RFO       ACCESS:          0  HIT:          0  MISS:          0  HIT %:       -nan  MISS %:       -nan   MPKI: 0
DTLB PREFETCH  ACCESS:          0  HIT:          0  MISS:          0  HIT %:       -nan  MISS %:       -nan   MPKI: 0
DTLB WRITEBACK ACCESS:          0  HIT:          0  MISS:          0  HIT %:       -nan  MISS %:       -nan   MPKI: 0
STLB TOTAL     ACCESS:   14925060  HIT:   14904675  MISS:      20385  HIT %:    99.8634  MISS %:   0.136582   MPKI: 0.100805
STLB LOAD      ACCESS:          0  HIT:          0  MISS:          0  HIT %:       -nan  MISS %:       -nan   MPKI: 0
STLB RFO       ACCESS:          0  HIT:          0  MISS:          0  HIT %:       -nan  MISS %:       -nan   MPKI: 0
STLB PREFETCH  ACCESS:          0  HIT:          0  MISS:          0  HIT %:       -nan  MISS %:       -nan   MPKI: 0
STLB WRITEBACK ACCESS:          0  HIT:          0  MISS:          0  HIT %:       -nan  MISS %:       -nan   MPKI: 0
L1D TOTAL     ACCESS:  101460834  HIT:   96440453  MISS:    5020381  HIT %:    95.0519  MISS %:     4.9481   MPKI: 24.826
L1D LOAD      ACCESS:   26560449  HIT:   24300013  MISS:    2260436  HIT %:    91.4895  MISS %:    8.51053   MPKI: 11.178
L1D RFO       ACCESS:   31662356  HIT:   29443347  MISS:    2219009  HIT %:    92.9916  MISS %:    7.00835   MPKI: 10.9731
L1D PREFETCH  ACCESS:   43238029  HIT:   42697093  MISS:     540936  HIT %:    98.7489  MISS %:    1.25107   MPKI: 2.67496
L1D WRITEBACK ACCESS:          0  HIT:          0  MISS:          0  HIT %:       -nan  MISS %:       -nan   MPKI: 0
L1I TOTAL     ACCESS:   36831301  HIT:   36831301  MISS:          0  HIT %:        100  MISS %:          0   MPKI: 0
L1I LOAD      ACCESS:   36831301  HIT:   36831301  MISS:          0  HIT %:        100  MISS %:          0   MPKI: 0
L1I RFO       ACCESS:          0  HIT:          0  MISS:          0  HIT %:       -nan  MISS %:       -nan   MPKI: 0
L1I PREFETCH  ACCESS:          0  HIT:          0  MISS:          0  HIT %:       -nan  MISS %:       -nan   MPKI: 0
L1I WRITEBACK ACCESS:          0  HIT:          0  MISS:          0  HIT %:       -nan  MISS %:       -nan   MPKI: 0
L2C TOTAL     ACCESS:   17319436  HIT:   12933984  MISS:    4385452  HIT %:     74.679  MISS %:     25.321   MPKI: 21.6863
L2C LOAD      ACCESS:    2241374  HIT:    1383782  MISS:     857592  HIT %:    61.7381  MISS %:    38.2619   MPKI: 4.24084
L2C RFO       ACCESS:    2218950  HIT:     130242  MISS:    2088708  HIT %:    5.86953  MISS %:    94.1305   MPKI: 10.3288
L2C PREFETCH  ACCESS:   10539588  HIT:    9259729  MISS:    1279859  HIT %:    87.8567  MISS %:    12.1433   MPKI: 6.32897
L2C WRITEBACK ACCESS:    2227256  HIT:    2071924  MISS:     155332  HIT %:    93.0259  MISS %:    6.97414   MPKI: 0.768125
PSCL5 TOTAL     ACCESS:      92261  HIT:      92261  MISS:          0  HIT %:        100  MISS %:          0   MPKI: 0
PSCL5 LOAD      ACCESS:          0  HIT:          0  MISS:          0  HIT %:       -nan  MISS %:       -nan   MPKI: 0
PSCL5 RFO       ACCESS:          0  HIT:          0  MISS:          0  HIT %:       -nan  MISS %:       -nan   MPKI: 0
PSCL5 PREFETCH  ACCESS:          0  HIT:          0  MISS:          0  HIT %:       -nan  MISS %:       -nan   MPKI: 0
PSCL5 WRITEBACK ACCESS:          0  HIT:          0  MISS:          0  HIT %:       -nan  MISS %:       -nan   MPKI: 0
PSCL4 TOTAL     ACCESS:      92261  HIT:      92261  MISS:          0  HIT %:        100  MISS %:          0   MPKI: 0
PSCL4 LOAD      ACCESS:          0  HIT:          0  MISS:          0  HIT %:       -nan  MISS %:       -nan   MPKI: 0
PSCL4 RFO       ACCESS:          0  HIT:          0  MISS:          0  HIT %:       -nan  MISS %:       -nan   MPKI: 0
PSCL4 PREFETCH  ACCESS:          0  HIT:          0  MISS:          0  HIT %:       -nan  MISS %:       -nan   MPKI: 0
PSCL4 WRITEBACK ACCESS:          0  HIT:          0  MISS:          0  HIT %:       -nan  MISS %:       -nan   MPKI: 0
PSCL3 TOTAL     ACCESS:      92261  HIT:      92261  MISS:          0  HIT %:        100  MISS %:          0   MPKI: 0
PSCL3 LOAD      ACCESS:          0  HIT:          0  MISS:          0  HIT %:       -nan  MISS %:       -nan   MPKI: 0
PSCL3 RFO       ACCESS:          0  HIT:          0  MISS:          0  HIT %:       -nan  MISS %:       -nan   MPKI: 0
PSCL3 PREFETCH  ACCESS:          0  HIT:          0  MISS:          0  HIT %:       -nan  MISS %:       -nan   MPKI: 0
PSCL3 WRITEBACK ACCESS:          0  HIT:          0  MISS:          0  HIT %:       -nan  MISS %:       -nan   MPKI: 0
PSCL2 TOTAL     ACCESS:      92239  HIT:      92202  MISS:         37  HIT %:    99.9599  MISS %:  0.0401132   MPKI: 0.000182967
PSCL2 LOAD      ACCESS:          0  HIT:          0  MISS:          0  HIT %:       -nan  MISS %:       -nan   MPKI: 0
PSCL2 RFO       ACCESS:          0  HIT:          0  MISS:          0  HIT %:       -nan  MISS %:       -nan   MPKI: 0
PSCL2 PREFETCH  ACCESS:          0  HIT:          0  MISS:          0  HIT %:       -nan  MISS %:       -nan   MPKI: 0
PSCL2 WRITEBACK ACCESS:          0  HIT:          0  MISS:          0  HIT %:       -nan  MISS %:       -nan   MPKI: 0
LLC TOTAL     ACCESS:    6331784  HIT:    2476519  MISS:    3855265  HIT %:    39.1125  MISS %:    60.8875   MPKI: 19.0645
LLC LOAD      ACCESS:     257112  HIT:      45020  MISS:     212092  HIT %:    17.5099  MISS %:    82.4901   MPKI: 1.04881
LLC RFO       ACCESS:    2088317  HIT:     140166  MISS:    1948151  HIT %:    6.71191  MISS %:    93.2881   MPKI: 9.6337
LLC PREFETCH  ACCESS:    1880728  HIT:     270858  MISS:    1609870  HIT %:    14.4018  MISS %:    85.5982   MPKI: 7.96089
LLC WRITEBACK ACCESS:    2101666  HIT:    2019656  MISS:      82010  HIT %:    96.0979  MISS %:    3.90214   MPKI: 0.405544

RAW hits: 2729182
Loads Generated: 51726383
Loads sent to L1D: 48997201
Stores Generated: 43404332
Stores sent to L1D: 43404307

CPU 3 cumulative IPC: 0.392963 instructions: 202382823 cycles: 515018058
ITLB TOTAL     ACCESS:   36679985  HIT:   36679985  MISS:          0  HIT %:        100  MISS %:          0   MPKI: 0
ITLB LOAD      ACCESS:          0  HIT:          0  MISS:          0  HIT %:       -nan  MISS %:       -nan   MPKI: 0
ITLB RFO       ACCESS:          0  HIT:          0  MISS:          0  HIT %:       -nan  MISS %:       -nan   MPKI: 0
ITLB PREFETCH  ACCESS:          0  HIT:          0  MISS:          0  HIT %:       -nan  MISS %:       -nan   MPKI: 0
ITLB WRITEBACK ACCESS:          0  HIT:          0  MISS:          0  HIT %:       -nan  MISS %:       -nan   MPKI: 0
DTLB TOTAL     ACCESS:   55622549  HIT:   55517022  MISS:     105527  HIT %:    99.8103  MISS %:    0.18972   MPKI: 0.521423
DTLB LOAD      ACCESS:          0  HIT:          0  MISS:          0  HIT %:       -nan  MISS %:       -nan   MPKI: 0
DTLB RFO       ACCESS:          0  HIT:          0  MISS:          0  HIT %:       -nan  MISS %:       -nan   MPKI: 0
DTLB PREFETCH  ACCESS:          0  HIT:          0  MISS:          0  HIT %:       -nan  MISS %:       -nan   MPKI: 0
DTLB WRITEBACK ACCESS:          0  HIT:          0  MISS:          0  HIT %:       -nan  MISS %:       -nan   MPKI: 0
STLB TOTAL     ACCESS:   15054616  HIT:   15034204  MISS:      20412  HIT %:    99.8644  MISS %:   0.135586   MPKI: 0.100858
STLB LOAD      ACCESS:          0  HIT:          0  MISS:          0  HIT %:       -nan  MISS %:       -nan   MPKI: 0
STLB RFO       ACCESS:          0  HIT:          0  MISS:          0  HIT %:       -nan  MISS %:       -nan   MPKI: 0
STLB PREFETCH  ACCESS:          0  HIT:          0  MISS:          0  HIT %:       -nan  MISS %:       -nan   MPKI: 0
STLB WRITEBACK ACCESS:          0  HIT:          0  MISS:          0  HIT %:       -nan  MISS %:       -nan   MPKI: 0
L1D TOTAL     ACCESS:  101065158  HIT:   96041760  MISS:    5023398  HIT %:    95.0295  MISS %:    4.97045   MPKI: 24.8213
L1D LOAD      ACCESS:   26544112  HIT:   24273999  MISS:    2270113  HIT %:    91.4478  MISS %:    8.55223   MPKI: 11.2169
L1D RFO       ACCESS:   31676157  HIT:   29455763  MISS:    2220394  HIT %:    92.9903  MISS %:    7.00967   MPKI: 10.9713
L1D PREFETCH  ACCESS:   42844889  HIT:   42311998  MISS:     532891  HIT %:    98.7562  MISS %:    1.24377   MPKI: 2.63308
L1D WRITEBACK ACCESS:          0  HIT:          0  MISS:          0  HIT %:       -nan  MISS %:       -nan   MPKI: 0
L1I TOTAL     ACCESS:   36861245  HIT:   36861245  MISS:          0  HIT %:        100  MISS %:          0   MPKI: 0
L1I LOAD      ACCESS:   36861245  HIT:   36861245  MISS:          0  HIT %:        100  MISS %:          0   MPKI: 0
L1I RFO       ACCESS:          0  HIT:          0  MISS:          0  HIT %:       -nan  MISS %:       -nan   MPKI: 0
L1I PREFETCH  ACCESS:          0  HIT:          0  MISS:          0  HIT %:       -nan  MISS %:       -nan   MPKI: 0
L1I WRITEBACK ACCESS:          0  HIT:          0  MISS:          0  HIT %:       -nan  MISS %:       -nan   MPKI: 0
L2C TOTAL     ACCESS:   16755454  HIT:   12369430  MISS:    4386024  HIT %:    73.8233  MISS %:    26.1767   MPKI: 21.6719
L2C LOAD      ACCESS:    2251595  HIT:    1395037  MISS:     856558  HIT %:    61.9577  MISS %:    38.0423   MPKI: 4.23237
L2C RFO       ACCESS:    2220353  HIT:     130350  MISS:    2090003  HIT %:    5.87069  MISS %:    94.1293   MPKI: 10.327
L2C PREFETCH  ACCESS:    9969650  HIT:    8689575  MISS:    1280075  HIT %:    87.1603  MISS %:    12.8397   MPKI: 6.32502
L2C WRITEBACK ACCESS:    2228444  HIT:    2073037  MISS:     155407  HIT %:    93.0262  MISS %:    6.97379   MPKI: 0.767886
PSCL5 TOTAL     ACCESS:      85403  HIT:      85403  MISS:          0  HIT %:        100  MISS %:          0   MPKI: 0
PSCL5 LOAD      ACCESS:          0  HIT:          0  MISS:          0  HIT %:       -nan  MISS %:       -nan   MPKI: 0
PSCL5 RFO       ACCESS:          0  HIT:          0  MISS:          0  HIT %:       -nan  MISS %:       -nan   MPKI: 0
PSCL5 PREFETCH  ACCESS:          0  HIT:          0  MISS:          0  HIT %:       -nan  MISS %:       -nan   MPKI: 0
PSCL5 WRITEBACK ACCESS:          0  HIT:          0  MISS:          0  HIT %:       -nan  MISS %:       -nan   MPKI: 0
PSCL4 TOTAL     ACCESS:      85403  HIT:      85403  MISS:          0  HIT %:        100  MISS %:          0   MPKI: 0
PSCL4 LOAD      ACCESS:          0  HIT:          0  MISS:          0  HIT %:       -nan  MISS %:       -nan   MPKI: 0
PSCL4 RFO       ACCESS:          0  HIT:          0  MISS:          0  HIT %:       -nan  MISS %:       -nan   MPKI: 0
PSCL4 PREFETCH  ACCESS:          0  HIT:          0  MISS:          0  HIT %:       -nan  MISS %:       -nan   MPKI: 0
PSCL4 WRITEBACK ACCESS:          0  HIT:          0  MISS:          0  HIT %:       -nan  MISS %:       -nan   MPKI: 0
PSCL3 TOTAL     ACCESS:      85403  HIT:      85403  MISS:          0  HIT %:        100  MISS %:          0   MPKI: 0
PSCL3 LOAD      ACCESS:          0  HIT:          0  MISS:          0  HIT %:       -nan  MISS %:       -nan   MPKI: 0
PSCL3 RFO       ACCESS:          0  HIT:          0  MISS:          0  HIT %:       -nan  MISS %:       -nan   MPKI: 0
PSCL3 PREFETCH  ACCESS:          0  HIT:          0  MISS:          0  HIT %:       -nan  MISS %:       -nan   MPKI: 0
PSCL3 WRITEBACK ACCESS:          0  HIT:          0  MISS:          0  HIT %:       -nan  MISS %:       -nan   MPKI: 0
PSCL2 TOTAL     ACCESS:      85367  HIT:      85330  MISS:         37  HIT %:    99.9567  MISS %:  0.0433423   MPKI: 0.000182822
PSCL2 LOAD      ACCESS:          0  HIT:          0  MISS:          0  HIT %:       -nan  MISS %:       -nan   MPKI: 0
PSCL2 RFO       ACCESS:          0  HIT:          0  MISS:          0  HIT %:       -nan  MISS %:       -nan   MPKI: 0
PSCL2 PREFETCH  ACCESS:          0  HIT:          0  MISS:          0  HIT %:       -nan  MISS %:       -nan   MPKI: 0
PSCL2 WRITEBACK ACCESS:          0  HIT:          0  MISS:          0  HIT %:       -nan  MISS %:       -nan   MPKI: 0
LLC TOTAL     ACCESS:    6333206  HIT:    2474648  MISS:    3858558  HIT %:    39.0742  MISS %:    60.9258   MPKI: 19.0656
LLC LOAD      ACCESS:     258348  HIT:      45481  MISS:     212867  HIT %:    17.6045  MISS %:    82.3955   MPKI: 1.0518
LLC RFO       ACCESS:    2089569  HIT:     136680  MISS:    1952889  HIT %:    6.54106  MISS %:    93.4589   MPKI: 9.64948
LLC PREFETCH  ACCESS:    1878718  HIT:     270672  MISS:    1608046  HIT %:    14.4073  MISS %:    85.5927   MPKI: 7.94557
LLC WRITEBACK ACCESS:    2102590  HIT:    2020994  MISS:      81596  HIT %:    96.1193  MISS %:    3.88074   MPKI: 0.403177

RAW hits: 2734826
Loads Generated: 51771032
Loads sent to L1D: 49036206
Stores Generated: 43440867
Stores sent to L1D: 43440845

Region of Interest Statistics

CPU 0 cumulative IPC: 0.392285 instructions: 200000000 cycles: 509833145
ITLB TOTAL     ACCESS:   36278352  HIT:   36278352  MISS:          0  HIT %:        100  MISS %:          0   MPKI: 0
ITLB LOAD TRANSLATION ACCESS:   36278352  HIT:   36278352  MISS:          0  HIT %:        100  MISS %:          0   MPKI: 0
ITLB PREFETCH  REQUESTED:          0  ISSUED:          0  USEFUL:          0  USELESS:          0
ITLB USEFUL LOAD PREFETCHES:          0 PREFETCH ISSUED TO LOWER LEVEL:          0  ACCURACY: -nan
ITLB TIMELY PREFETCHES:          0 LATE PREFETCHES: 0 DROPPED PREFETCHES: 0
ITLB PREFETCHES SAME FILL-ORIGIN LEVEL: 0 DIFFERENT FILL-ORIGIN LEVEL: 0
ITLB AVERAGE MISS LATENCY: -nan cycles
ITLB RQ	ACCESS:   36960618	FORWARD:          0	MERGED:     181378	TO_CACHE:   36779240

DTLB TOTAL     ACCESS:   54917650  HIT:   54812556  MISS:     105094  HIT %:    99.8086  MISS %:   0.191367   MPKI: 0.52547
DTLB LOAD TRANSLATION ACCESS:   54917650  HIT:   54812556  MISS:     105094  HIT %:    99.8086  MISS %:   0.191367   MPKI: 0.52547
DTLB PREFETCH  REQUESTED:          0  ISSUED:          0  USEFUL:          0  USELESS:          0
DTLB USEFUL LOAD PREFETCHES:          0 PREFETCH ISSUED TO LOWER LEVEL:          0  ACCURACY: -nan
DTLB TIMELY PREFETCHES:          0 LATE PREFETCHES: 0 DROPPED PREFETCHES: 0
DTLB PREFETCHES SAME FILL-ORIGIN LEVEL: 0 DIFFERENT FILL-ORIGIN LEVEL: 0
DTLB AVERAGE MISS LATENCY: 135.647 cycles
DTLB RQ	ACCESS:   71101655	FORWARD:          0	MERGED:   15227604	TO_CACHE:   55874051

STLB TOTAL     ACCESS:   14891232  HIT:   14871259  MISS:      19973  HIT %:    99.8659  MISS %:   0.134126   MPKI: 0.099865
STLB LOAD TRANSLATION ACCESS:     105094  HIT:      86587  MISS:      18507  HIT %:    82.3901  MISS %:    17.6099   MPKI: 0.092535
STLB TRANSLATION FROM L1D PREFETCHER ACCESS:   14786138  HIT:   14784672  MISS:       1466  HIT %:    99.9901  MISS %: 0.00991469   MPKI: 0.00733
STLB PREFETCH  REQUESTED:          0  ISSUED:          0  USEFUL:       1693  USELESS:          8
STLB USEFUL LOAD PREFETCHES:       1693 PREFETCH ISSUED TO LOWER LEVEL:          0  ACCURACY: inf
STLB TIMELY PREFETCHES:       1693 LATE PREFETCHES: 2357 DROPPED PREFETCHES: 54810
STLB PREFETCHES SAME FILL-ORIGIN LEVEL: 0 DIFFERENT FILL-ORIGIN LEVEL: 0
STLB AVERAGE MISS LATENCY: 678.892 cycles
STLB RQ	ACCESS:   56902855	FORWARD:          0	MERGED:   41749840	TO_CACHE:   15153015

STLB Hit, L1D data hit: 0
STLB Hit, L2C data hit: 0
STLB Hit, LLC data hit: 0
STLB Hit, LLC data miss: 0
STLB STLB hints to L2: 0
L1D TOTAL     ACCESS:  100260538  HIT:   95278336  MISS:    4982202  HIT %:    95.0307  MISS %:    4.96926   MPKI: 24.911
L1D LOAD      ACCESS:   26208581  HIT:   23957407  MISS:    2251174  HIT %:    91.4105  MISS %:    8.58945   MPKI: 11.2559
L1D RFO       ACCESS:   31312378  HIT:   29109906  MISS:    2202472  HIT %:    92.9661  MISS %:    7.03387   MPKI: 11.0124
L1D PREFETCH  ACCESS:   42739579  HIT:   42211023  MISS:     528556  HIT %:    98.7633  MISS %:    1.23669   MPKI: 2.64278
L1D PREFETCH  REQUESTED:  149542967  ISSUED:  137956411  USEFUL:     504758  USELESS:      31969
L1D USEFUL LOAD PREFETCHES:     504758 PREFETCH ISSUED TO LOWER LEVEL:   13453877  ACCURACY: 3.75177
L1D TIMELY PREFETCHES:     504758 LATE PREFETCHES: 19427 DROPPED PREFETCHES: 96091
L1D PREFETCHES SAME FILL-ORIGIN LEVEL: 556121 DIFFERENT FILL-ORIGIN LEVEL: 12897756
L1D AVERAGE MISS LATENCY: 611.703 cycles
L1D RQ	ACCESS:   49177284	FORWARD:          0	MERGED:   20435963	TO_CACHE:   28576447
L1D WQ	ACCESS:   43571914	FORWARD:     211801	MERGED:    1046706	TO_CACHE:   42525208
L1D PQ	ACCESS:   81159215	FORWARD:          0	MERGED:   24315092	TO_CACHE:   56797196

L1D UNIQUE REGIONS ACCESSED: 0
L1D REGIONS CONFLICTS: 0
L1D Cross Page Prefetch Requests: 8541750
L1D Same Page Prefetch Requests: 98073126
L1D ROI Sum of L1D PQ occupancy: 976607544
L1D PREFETCHES PUSHED FROM L2C: 0
L1I TOTAL     ACCESS:   36444070  HIT:   36444070  MISS:          0  HIT %:        100  MISS %:          0   MPKI: 0
L1I LOAD      ACCESS:   36444070  HIT:   36444070  MISS:          0  HIT %:        100  MISS %:          0   MPKI: 0
L1I PREFETCH  REQUESTED:          0  ISSUED:          0  USEFUL:          0  USELESS:          0
L1I USEFUL LOAD PREFETCHES:          0 PREFETCH ISSUED TO LOWER LEVEL:          0  ACCURACY: -nan
L1I TIMELY PREFETCHES:          0 LATE PREFETCHES: 0 DROPPED PREFETCHES: 0
L1I PREFETCHES SAME FILL-ORIGIN LEVEL: 0 DIFFERENT FILL-ORIGIN LEVEL: 0
L1I AVERAGE MISS LATENCY: -nan cycles
L1I RQ	ACCESS:   52120367	FORWARD:          0	MERGED:   15159749	TO_CACHE:   36960618

BTB TOTAL     ACCESS:   20032383  HIT:   20032173  MISS:        210  HIT %:     99.999  MISS %:  0.0010483   MPKI: 0.00105
BTB BRANCH_DIRECT_JUMP	ACCESS:       1588  HIT:       1582  MISS:          6
BTB BRANCH_INDIRECT	ACCESS:          0  HIT:          0  MISS:          0
BTB BRANCH_CONDITIONAL	ACCESS:   20028317  HIT:   20028277  MISS:         40
BTB BRANCH_DIRECT_CALL	ACCESS:       1239  HIT:       1229  MISS:         10
BTB BRANCH_INDIRECT_CALL	ACCESS:          0  HIT:          0  MISS:          0
BTB BRANCH_RETURN	ACCESS:       1239  HIT:       1085  MISS:        154
BTB BRANCH_OTHER ACCESS:          0  HIT:          0  MISS:          0

L2C TOTAL     ACCESS:   16870596  HIT:   12518468  MISS:    4352128  HIT %:    74.2029  MISS %:    25.7971   MPKI: 21.7606
L2C LOAD      ACCESS:    2231830  HIT:    1380422  MISS:     851408  HIT %:    61.8516  MISS %:    38.1484   MPKI: 4.25704
L2C DATA LOAD MPKI: 4.25704
L2C INSTRUCTION LOAD MPKI: 0
L2C RFO       ACCESS:    2202403  HIT:     127573  MISS:    2074830  HIT %:    5.79245  MISS %:    94.2076   MPKI: 10.3742
L2C PREFETCH  ACCESS:   10150958  HIT:    8882512  MISS:    1268446  HIT %:    87.5042  MISS %:    12.4958   MPKI: 6.34223
L2C DATA PREFETCH MPKI: 6.34223
L2C INSTRUCTION PREFETCH MPKI: 0
L2C WRITEBACK ACCESS:    2208576  HIT:    2055080  MISS:     153496  HIT %:      93.05  MISS %:       6.95   MPKI: 0.76748
L2C LOAD TRANSLATION ACCESS:      18208  HIT:      15849  MISS:       2359  HIT %:    87.0442  MISS %:    12.9558   MPKI: 0.011795
L2C TRANSLATION FROM L1D PREFETCHER ACCESS:      58621  HIT:      57032  MISS:       1589  HIT %:    97.2894  MISS %:    2.71063   MPKI: 0.007945
L2C PREFETCH  REQUESTED:          0  ISSUED:          0  USEFUL:    1120473  USELESS:     166298
L2C USEFUL LOAD PREFETCHES:    1120473 PREFETCH ISSUED TO LOWER LEVEL:    1878492  ACCURACY: 59.6475
L2C TIMELY PREFETCHES:    1120473 LATE PREFETCHES: 595963 DROPPED PREFETCHES: 0
L2C PREFETCHES SAME FILL-ORIGIN LEVEL: 1796300 DIFFERENT FILL-ORIGIN LEVEL: 0
L2C AVERAGE MISS LATENCY: 885.788 cycles
L2C RQ	ACCESS:    4554970	FORWARD:          0	MERGED:          0	TO_CACHE:    4554898
L2C WQ	ACCESS:    2233138	FORWARD:         85	MERGED:          0	TO_CACHE:    2233138
L2C PQ	ACCESS:   13453637	FORWARD:          0	MERGED:     243321	TO_CACHE:   13210303

L2C Instructions Evicting Data 0
L2C Translations Evicting Data 4029
L2C Data Evicting Data 4230167
L2C Instructions Evicting Instructions 0
L2C Translations Evicting Instructions 0
L2C Data Evicting Instructions 0
L2C Instructions Evicting Translations 0
L2C Translations Evicting Translations 2
L2C Data Evicting Translations 3872
L2C Dense regions hint from L2: 0
PSCL5 TOTAL     ACCESS:      76823  HIT:      76823  MISS:          0  HIT %:        100  MISS %:          0   MPKI: 0
PSCL5 LOAD TRANSLATION ACCESS:      18205  HIT:      18205  MISS:          0  HIT %:        100  MISS %:          0   MPKI: 0
PSCL5 TRANSLATION FROM L1D PREFETCHER ACCESS:      58618  HIT:      58618  MISS:          0  HIT %:        100  MISS %:          0   MPKI: 0
PSCL5 PREFETCH  REQUESTED:          0  ISSUED:          0  USEFUL:          0  USELESS:          0
PSCL5 USEFUL LOAD PREFETCHES:          0 PREFETCH ISSUED TO LOWER LEVEL:          0  ACCURACY: -nan
PSCL5 TIMELY PREFETCHES:          0 LATE PREFETCHES: 0 DROPPED PREFETCHES: 0
PSCL5 PREFETCHES SAME FILL-ORIGIN LEVEL: 0 DIFFERENT FILL-ORIGIN LEVEL: 0

PSCL4 TOTAL     ACCESS:      76823  HIT:      76823  MISS:          0  HIT %:        100  MISS %:          0   MPKI: 0
PSCL4 LOAD TRANSLATION ACCESS:      18205  HIT:      18205  MISS:          0  HIT %:        100  MISS %:          0   MPKI: 0
PSCL4 TRANSLATION FROM L1D PREFETCHER ACCESS:      58618  HIT:      58618  MISS:          0  HIT %:        100  MISS %:          0   MPKI: 0
PSCL4 PREFETCH  REQUESTED:          0  ISSUED:          0  USEFUL:          0  USELESS:          0
PSCL4 USEFUL LOAD PREFETCHES:          0 PREFETCH ISSUED TO LOWER LEVEL:          0  ACCURACY: -nan
PSCL4 TIMELY PREFETCHES:          0 LATE PREFETCHES: 0 DROPPED PREFETCHES: 0
PSCL4 PREFETCHES SAME FILL-ORIGIN LEVEL: 0 DIFFERENT FILL-ORIGIN LEVEL: 0

PSCL3 TOTAL     ACCESS:      76823  HIT:      76823  MISS:          0  HIT %:        100  MISS %:          0   MPKI: 0
PSCL3 LOAD TRANSLATION ACCESS:      18205  HIT:      18205  MISS:          0  HIT %:        100  MISS %:          0   MPKI: 0
PSCL3 TRANSLATION FROM L1D PREFETCHER ACCESS:      58618  HIT:      58618  MISS:          0  HIT %:        100  MISS %:          0   MPKI: 0
PSCL3 PREFETCH  REQUESTED:          0  ISSUED:          0  USEFUL:          0  USELESS:          0
PSCL3 USEFUL LOAD PREFETCHES:          0 PREFETCH ISSUED TO LOWER LEVEL:          0  ACCURACY: -nan
PSCL3 TIMELY PREFETCHES:          0 LATE PREFETCHES: 0 DROPPED PREFETCHES: 0
PSCL3 PREFETCHES SAME FILL-ORIGIN LEVEL: 0 DIFFERENT FILL-ORIGIN LEVEL: 0

PSCL2 TOTAL     ACCESS:      76800  HIT:      76765  MISS:         35  HIT %:    99.9544  MISS %:  0.0455729   MPKI: 0.000175
PSCL2 LOAD TRANSLATION ACCESS:      18206  HIT:      18171  MISS:         35  HIT %:    99.8078  MISS %:   0.192244   MPKI: 0.000175
PSCL2 TRANSLATION FROM L1D PREFETCHER ACCESS:      58594  HIT:      58594  MISS:          0  HIT %:        100  MISS %:          0   MPKI: 0
PSCL2 PREFETCH  REQUESTED:          0  ISSUED:          0  USEFUL:          0  USELESS:          0
PSCL2 USEFUL LOAD PREFETCHES:          0 PREFETCH ISSUED TO LOWER LEVEL:          0  ACCURACY: -nan
PSCL2 TIMELY PREFETCHES:          0 LATE PREFETCHES: 0 DROPPED PREFETCHES: 0
PSCL2 PREFETCHES SAME FILL-ORIGIN LEVEL: 0 DIFFERENT FILL-ORIGIN LEVEL: 0

LLC TOTAL     ACCESS:    6284552  HIT:    2470330  MISS:    3814222  HIT %:     39.308  MISS %:     60.692   MPKI: 19.0711
LLC LOAD      ACCESS:     260787  HIT:      48335  MISS:     212452  HIT %:    18.5343  MISS %:    81.4657   MPKI: 1.06226
LLC RFO       ACCESS:    2074309  HIT:     141343  MISS:    1932966  HIT %:    6.81398  MISS %:     93.186   MPKI: 9.66483
LLC PREFETCH  ACCESS:    1859585  HIT:     276273  MISS:    1583312  HIT %:    14.8567  MISS %:    85.1433   MPKI: 7.91656
LLC WRITEBACK ACCESS:    2085923  HIT:    2003567  MISS:      82356  HIT %:    96.0518  MISS %:    3.94818   MPKI: 0.41178
LLC LOAD TRANSLATION ACCESS:       2359  HIT:        664  MISS:       1695  HIT %:    28.1475  MISS %:    71.8525   MPKI: 0.008475
LLC TRANSLATION FROM L1D PREFETCHER ACCESS:       1589  HIT:        148  MISS:       1441  HIT %:    9.31403  MISS %:     90.686   MPKI: 0.007205
LLC PREFETCH  REQUESTED:          0  ISSUED:          0  USEFUL:     334511  USELESS:    6109036
LLC USEFUL LOAD PREFETCHES:     334511 PREFETCH ISSUED TO LOWER LEVEL:   29890639  ACCURACY: 1.11912
LLC TIMELY PREFETCHES:     334511 LATE PREFETCHES: 0 DROPPED PREFETCHES: 0
LLC PREFETCHES SAME FILL-ORIGIN LEVEL: 0 DIFFERENT FILL-ORIGIN LEVEL: 0
LLC AVERAGE MISS LATENCY: 4231.49 cycles
LLC RQ	ACCESS:    9394278	FORWARD:          0	MERGED:          0	TO_CACHE:    9394276
LLC WQ	ACCESS:    8397083	FORWARD:          6	MERGED:          0	TO_CACHE:    8397083
LLC PQ	ACCESS:    7501056	FORWARD:          0	MERGED:          0	TO_CACHE:    7501052

LLC Dense regions hint to LLC: 0

RAW hits: 2678232
Loads Generated: 51115613
Loads sent to L1D: 48437376
Stores Generated: 42905846
Stores sent to L1D: 42905828
Major fault: 0 Minor fault: 20508
Allocated PAGES: 82032

CPU 1 cumulative IPC: 0.388336 instructions: 200000002 cycles: 515018058
ITLB TOTAL     ACCESS:   36283929  HIT:   36283929  MISS:          0  HIT %:        100  MISS %:          0   MPKI: 0
ITLB LOAD TRANSLATION ACCESS:   36283929  HIT:   36283929  MISS:          0  HIT %:        100  MISS %:          0   MPKI: 0
ITLB PREFETCH  REQUESTED:          0  ISSUED:          0  USEFUL:          0  USELESS:          0
ITLB USEFUL LOAD PREFETCHES:          0 PREFETCH ISSUED TO LOWER LEVEL:          0  ACCURACY: -nan
ITLB TIMELY PREFETCHES:          0 LATE PREFETCHES: 0 DROPPED PREFETCHES: 0
ITLB PREFETCHES SAME FILL-ORIGIN LEVEL: 0 DIFFERENT FILL-ORIGIN LEVEL: 0
ITLB AVERAGE MISS LATENCY: -nan cycles
ITLB RQ	ACCESS:   36449520	FORWARD:          0	MERGED:     165592	TO_CACHE:   36283928

DTLB TOTAL     ACCESS:   54796369  HIT:   54691276  MISS:     105093  HIT %:    99.8082  MISS %:   0.191788   MPKI: 0.525465
DTLB LOAD TRANSLATION ACCESS:   54796369  HIT:   54691276  MISS:     105093  HIT %:    99.8082  MISS %:   0.191788   MPKI: 0.525465
DTLB PREFETCH  REQUESTED:          0  ISSUED:          0  USEFUL:          0  USELESS:          0
DTLB USEFUL LOAD PREFETCHES:          0 PREFETCH ISSUED TO LOWER LEVEL:          0  ACCURACY: -nan
DTLB TIMELY PREFETCHES:          0 LATE PREFETCHES: 0 DROPPED PREFETCHES: 0
DTLB PREFETCHES SAME FILL-ORIGIN LEVEL: 0 DIFFERENT FILL-ORIGIN LEVEL: 0
DTLB AVERAGE MISS LATENCY: 134.353 cycles
DTLB RQ	ACCESS:   69933366	FORWARD:          0	MERGED:   15025502	TO_CACHE:   54907864

STLB TOTAL     ACCESS:   14529870  HIT:   14509908  MISS:      19962  HIT %:    99.8626  MISS %:   0.137386   MPKI: 0.09981
STLB LOAD TRANSLATION ACCESS:     105093  HIT:      86593  MISS:      18500  HIT %:    82.3965  MISS %:    17.6035   MPKI: 0.0925
STLB TRANSLATION FROM L1D PREFETCHER ACCESS:   14424777  HIT:   14423315  MISS:       1462  HIT %:    99.9899  MISS %:  0.0101353   MPKI: 0.00731
STLB PREFETCH  REQUESTED:          0  ISSUED:          0  USEFUL:       1457  USELESS:          5
STLB USEFUL LOAD PREFETCHES:       1457 PREFETCH ISSUED TO LOWER LEVEL:          0  ACCURACY: inf
STLB TIMELY PREFETCHES:       1457 LATE PREFETCHES: 2373 DROPPED PREFETCHES: 56870
STLB PREFETCHES SAME FILL-ORIGIN LEVEL: 0 DIFFERENT FILL-ORIGIN LEVEL: 0
STLB AVERAGE MISS LATENCY: 670.645 cycles
STLB RQ	ACCESS:   54380943	FORWARD:          0	MERGED:   39773422	TO_CACHE:   14607521

STLB Hit, L1D data hit: 0
STLB Hit, L2C data hit: 0
STLB Hit, LLC data hit: 0
STLB Hit, LLC data miss: 0
STLB STLB hints to L2: 0
L1D TOTAL     ACCESS:   98682629  HIT:   93701164  MISS:    4981465  HIT %:     94.952  MISS %:    5.04797   MPKI: 24.9073
L1D LOAD      ACCESS:   26071963  HIT:   23794292  MISS:    2277671  HIT %:    91.2639  MISS %:    8.73609   MPKI: 11.3884
L1D RFO       ACCESS:   31319320  HIT:   29116879  MISS:    2202441  HIT %:    92.9678  MISS %:    7.03221   MPKI: 11.0122
L1D PREFETCH  ACCESS:   41291346  HIT:   40789993  MISS:     501353  HIT %:    98.7858  MISS %:    1.21418   MPKI: 2.50676
L1D PREFETCH  REQUESTED:  142502170  ISSUED:  131978191  USEFUL:     470604  USELESS:      30773
L1D USEFUL LOAD PREFETCHES:     470604 PREFETCH ISSUED TO LOWER LEVEL:   12954368  ACCURACY: 3.63278
L1D TIMELY PREFETCHES:     470604 LATE PREFETCHES: 18114 DROPPED PREFETCHES: 101227
L1D PREFETCHES SAME FILL-ORIGIN LEVEL: 519467 DIFFERENT FILL-ORIGIN LEVEL: 12434901
L1D AVERAGE MISS LATENCY: 601.334 cycles
L1D RQ	ACCESS:   48428585	FORWARD:          0	MERGED:   20212817	TO_CACHE:   28047713
L1D WQ	ACCESS:   42905828	FORWARD:     210614	MERGED:    1020175	TO_CACHE:   41885653
L1D PQ	ACCESS:   77702341	FORWARD:          0	MERGED:   23383932	TO_CACHE:   54275850

L1D UNIQUE REGIONS ACCESSED: 0
L1D REGIONS CONFLICTS: 0
L1D Cross Page Prefetch Requests: 8232497
L1D Same Page Prefetch Requests: 94893709
L1D ROI Sum of L1D PQ occupancy: 937285360
L1D PREFETCHES PUSHED FROM L2C: 0
L1I TOTAL     ACCESS:   36449520  HIT:   36449520  MISS:          0  HIT %:        100  MISS %:          0   MPKI: 0
L1I LOAD      ACCESS:   36449520  HIT:   36449520  MISS:          0  HIT %:        100  MISS %:          0   MPKI: 0
L1I PREFETCH  REQUESTED:          0  ISSUED:          0  USEFUL:          0  USELESS:          0
L1I USEFUL LOAD PREFETCHES:          0 PREFETCH ISSUED TO LOWER LEVEL:          0  ACCURACY: -nan
L1I TIMELY PREFETCHES:          0 LATE PREFETCHES: 0 DROPPED PREFETCHES: 0
L1I PREFETCHES SAME FILL-ORIGIN LEVEL: 0 DIFFERENT FILL-ORIGIN LEVEL: 0
L1I AVERAGE MISS LATENCY: -nan cycles
L1I RQ	ACCESS:   51377340	FORWARD:          0	MERGED:   14927820	TO_CACHE:   36449520

BTB TOTAL     ACCESS:   20032384  HIT:   20032174  MISS:        210  HIT %:     99.999  MISS %:  0.0010483   MPKI: 0.00105
BTB BRANCH_DIRECT_JUMP	ACCESS:       1588  HIT:       1582  MISS:          6
BTB BRANCH_INDIRECT	ACCESS:          0  HIT:          0  MISS:          0
BTB BRANCH_CONDITIONAL	ACCESS:   20028318  HIT:   20028278  MISS:         40
BTB BRANCH_DIRECT_CALL	ACCESS:       1239  HIT:       1229  MISS:         10
BTB BRANCH_INDIRECT_CALL	ACCESS:          0  HIT:          0  MISS:          0
BTB BRANCH_RETURN	ACCESS:       1239  HIT:       1085  MISS:        154
BTB BRANCH_OTHER ACCESS:          0  HIT:          0  MISS:          0

L2C TOTAL     ACCESS:   16478590  HIT:   12130203  MISS:    4348387  HIT %:    73.6119  MISS %:    26.3881   MPKI: 21.7419
L2C LOAD      ACCESS:    2259553  HIT:    1402577  MISS:     856976  HIT %:    62.0732  MISS %:    37.9268   MPKI: 4.28488
L2C DATA LOAD MPKI: 4.28488
L2C INSTRUCTION LOAD MPKI: 0
L2C RFO       ACCESS:    2202387  HIT:     126941  MISS:    2075446  HIT %:    5.76379  MISS %:    94.2362   MPKI: 10.3772
L2C PREFETCH  ACCESS:    9729232  HIT:    8469018  MISS:    1260214  HIT %:    87.0471  MISS %:    12.9529   MPKI: 6.30107
L2C DATA PREFETCH MPKI: 6.30107
L2C INSTRUCTION PREFETCH MPKI: 0
L2C WRITEBACK ACCESS:    2208512  HIT:    2056640  MISS:     151872  HIT %:    93.1233  MISS %:    6.87667   MPKI: 0.75936
L2C LOAD TRANSLATION ACCESS:      18199  HIT:      15917  MISS:       2282  HIT %:    87.4608  MISS %:    12.5392   MPKI: 0.01141
L2C TRANSLATION FROM L1D PREFETCHER ACCESS:      60707  HIT:      59110  MISS:       1597  HIT %:    97.3693  MISS %:    2.63067   MPKI: 0.007985
L2C PREFETCH  REQUESTED:          0  ISSUED:          0  USEFUL:    1109731  USELESS:     154856
L2C USEFUL LOAD PREFETCHES:    1109731 PREFETCH ISSUED TO LOWER LEVEL:    1863109  ACCURACY: 59.5634
L2C TIMELY PREFETCHES:    1109731 LATE PREFETCHES: 602895 DROPPED PREFETCHES: 0
L2C PREFETCHES SAME FILL-ORIGIN LEVEL: 1787186 DIFFERENT FILL-ORIGIN LEVEL: 0
L2C AVERAGE MISS LATENCY: 875.886 cycles
L2C RQ	ACCESS:    4540906	FORWARD:          0	MERGED:          0	TO_CACHE:    4540848
L2C WQ	ACCESS:    2208512	FORWARD:         66	MERGED:          0	TO_CACHE:    2208512
L2C PQ	ACCESS:   12953882	FORWARD:          0	MERGED:     248823	TO_CACHE:   12705051

L2C Instructions Evicting Data 0
L2C Translations Evicting Data 3876
L2C Data Evicting Data 4188876
L2C Instructions Evicting Instructions 0
L2C Translations Evicting Instructions 0
L2C Data Evicting Instructions 0
L2C Instructions Evicting Translations 0
L2C Translations Evicting Translations 3
L2C Data Evicting Translations 3760
L2C Dense regions hint from L2: 0
PSCL5 TOTAL     ACCESS:      78901  HIT:      78901  MISS:          0  HIT %:        100  MISS %:          0   MPKI: 0
PSCL5 LOAD TRANSLATION ACCESS:      18196  HIT:      18196  MISS:          0  HIT %:        100  MISS %:          0   MPKI: 0
PSCL5 TRANSLATION FROM L1D PREFETCHER ACCESS:      60705  HIT:      60705  MISS:          0  HIT %:        100  MISS %:          0   MPKI: 0
PSCL5 PREFETCH  REQUESTED:          0  ISSUED:          0  USEFUL:          0  USELESS:          0
PSCL5 USEFUL LOAD PREFETCHES:          0 PREFETCH ISSUED TO LOWER LEVEL:          0  ACCURACY: -nan
PSCL5 TIMELY PREFETCHES:          0 LATE PREFETCHES: 0 DROPPED PREFETCHES: 0
PSCL5 PREFETCHES SAME FILL-ORIGIN LEVEL: 0 DIFFERENT FILL-ORIGIN LEVEL: 0

PSCL4 TOTAL     ACCESS:      78901  HIT:      78901  MISS:          0  HIT %:        100  MISS %:          0   MPKI: 0
PSCL4 LOAD TRANSLATION ACCESS:      18196  HIT:      18196  MISS:          0  HIT %:        100  MISS %:          0   MPKI: 0
PSCL4 TRANSLATION FROM L1D PREFETCHER ACCESS:      60705  HIT:      60705  MISS:          0  HIT %:        100  MISS %:          0   MPKI: 0
PSCL4 PREFETCH  REQUESTED:          0  ISSUED:          0  USEFUL:          0  USELESS:          0
PSCL4 USEFUL LOAD PREFETCHES:          0 PREFETCH ISSUED TO LOWER LEVEL:          0  ACCURACY: -nan
PSCL4 TIMELY PREFETCHES:          0 LATE PREFETCHES: 0 DROPPED PREFETCHES: 0
PSCL4 PREFETCHES SAME FILL-ORIGIN LEVEL: 0 DIFFERENT FILL-ORIGIN LEVEL: 0

PSCL3 TOTAL     ACCESS:      78901  HIT:      78901  MISS:          0  HIT %:        100  MISS %:          0   MPKI: 0
PSCL3 LOAD TRANSLATION ACCESS:      18196  HIT:      18196  MISS:          0  HIT %:        100  MISS %:          0   MPKI: 0
PSCL3 TRANSLATION FROM L1D PREFETCHER ACCESS:      60705  HIT:      60705  MISS:          0  HIT %:        100  MISS %:          0   MPKI: 0
PSCL3 PREFETCH  REQUESTED:          0  ISSUED:          0  USEFUL:          0  USELESS:          0
PSCL3 USEFUL LOAD PREFETCHES:          0 PREFETCH ISSUED TO LOWER LEVEL:          0  ACCURACY: -nan
PSCL3 TIMELY PREFETCHES:          0 LATE PREFETCHES: 0 DROPPED PREFETCHES: 0
PSCL3 PREFETCHES SAME FILL-ORIGIN LEVEL: 0 DIFFERENT FILL-ORIGIN LEVEL: 0

PSCL2 TOTAL     ACCESS:      78878  HIT:      78843  MISS:         35  HIT %:    99.9556  MISS %:  0.0443723   MPKI: 0.000175
PSCL2 LOAD TRANSLATION ACCESS:      18197  HIT:      18162  MISS:         35  HIT %:    99.8077  MISS %:   0.192339   MPKI: 0.000175
PSCL2 TRANSLATION FROM L1D PREFETCHER ACCESS:      60681  HIT:      60681  MISS:          0  HIT %:        100  MISS %:          0   MPKI: 0
PSCL2 PREFETCH  REQUESTED:          0  ISSUED:          0  USEFUL:          0  USELESS:          0
PSCL2 USEFUL LOAD PREFETCHES:          0 PREFETCH ISSUED TO LOWER LEVEL:          0  ACCURACY: -nan
PSCL2 TIMELY PREFETCHES:          0 LATE PREFETCHES: 0 DROPPED PREFETCHES: 0
PSCL2 PREFETCHES SAME FILL-ORIGIN LEVEL: 0 DIFFERENT FILL-ORIGIN LEVEL: 0

LLC TOTAL     ACCESS:    6282846  HIT:    2441564  MISS:    3841282  HIT %:    38.8608  MISS %:    61.1392   MPKI: 19.2064
LLC LOAD      ACCESS:     254550  HIT:      40473  MISS:     214077  HIT %:    15.8998  MISS %:    84.1002   MPKI: 1.07038
LLC RFO       ACCESS:    2074977  HIT:     146060  MISS:    1928917  HIT %:    7.03911  MISS %:    92.9609   MPKI: 9.64458
LLC PREFETCH  ACCESS:    1863109  HIT:     257597  MISS:    1605512  HIT %:    13.8262  MISS %:    86.1738   MPKI: 8.02756
LLC WRITEBACK ACCESS:    2086331  HIT:    1996671  MISS:      89660  HIT %:    95.7025  MISS %:     4.2975   MPKI: 0.4483
LLC LOAD TRANSLATION ACCESS:       2282  HIT:        597  MISS:       1685  HIT %:    26.1613  MISS %:    73.8387   MPKI: 0.008425
LLC TRANSLATION FROM L1D PREFETCHER ACCESS:       1597  HIT:        166  MISS:       1431  HIT %:    10.3945  MISS %:    89.6055   MPKI: 0.007155
LLC PREFETCH  REQUESTED:          0  ISSUED:          0  USEFUL:     334511  USELESS:    6109036
LLC USEFUL LOAD PREFETCHES:     334511 PREFETCH ISSUED TO LOWER LEVEL:   29890639  ACCURACY: 1.11912
LLC TIMELY PREFETCHES:     334511 LATE PREFETCHES: 0 DROPPED PREFETCHES: 0
LLC PREFETCHES SAME FILL-ORIGIN LEVEL: 0 DIFFERENT FILL-ORIGIN LEVEL: 0
LLC AVERAGE MISS LATENCY: 4201.68 cycles
LLC RQ	ACCESS:    9394278	FORWARD:          0	MERGED:          0	TO_CACHE:    9394276
LLC WQ	ACCESS:    8397083	FORWARD:          6	MERGED:          0	TO_CACHE:    8397083
LLC PQ	ACCESS:    7501056	FORWARD:          0	MERGED:          0	TO_CACHE:    7501052

LLC Dense regions hint to LLC: 0

RAW hits: 2687021
Loads Generated: 51115611
Loads sent to L1D: 48428585
Stores Generated: 42905845
Stores sent to L1D: 42905828
Major fault: 0 Minor fault: 20508
Allocated PAGES: 82032

CPU 2 cumulative IPC: 0.39129 instructions: 200000003 cycles: 511129878
ITLB TOTAL     ACCESS:   36274855  HIT:   36274855  MISS:          0  HIT %:        100  MISS %:          0   MPKI: 0
ITLB LOAD TRANSLATION ACCESS:   36274855  HIT:   36274855  MISS:          0  HIT %:        100  MISS %:          0   MPKI: 0
ITLB PREFETCH  REQUESTED:          0  ISSUED:          0  USEFUL:          0  USELESS:          0
ITLB USEFUL LOAD PREFETCHES:          0 PREFETCH ISSUED TO LOWER LEVEL:          0  ACCURACY: -nan
ITLB TIMELY PREFETCHES:          0 LATE PREFETCHES: 0 DROPPED PREFETCHES: 0
ITLB PREFETCHES SAME FILL-ORIGIN LEVEL: 0 DIFFERENT FILL-ORIGIN LEVEL: 0
ITLB AVERAGE MISS LATENCY: -nan cycles
ITLB RQ	ACCESS:   36831300	FORWARD:          0	MERGED:     180624	TO_CACHE:   36650676

DTLB TOTAL     ACCESS:   54982148  HIT:   54877057  MISS:     105091  HIT %:    99.8089  MISS %:   0.191137   MPKI: 0.525455
DTLB LOAD TRANSLATION ACCESS:   54982148  HIT:   54877057  MISS:     105091  HIT %:    99.8089  MISS %:   0.191137   MPKI: 0.525455
DTLB PREFETCH  REQUESTED:          0  ISSUED:          0  USEFUL:          0  USELESS:          0
DTLB USEFUL LOAD PREFETCHES:          0 PREFETCH ISSUED TO LOWER LEVEL:          0  ACCURACY: -nan
DTLB TIMELY PREFETCHES:          0 LATE PREFETCHES: 0 DROPPED PREFETCHES: 0
DTLB PREFETCHES SAME FILL-ORIGIN LEVEL: 0 DIFFERENT FILL-ORIGIN LEVEL: 0
DTLB AVERAGE MISS LATENCY: 135.82 cycles
DTLB RQ	ACCESS:   70900954	FORWARD:          0	MERGED:   15176472	TO_CACHE:   55724482

STLB TOTAL     ACCESS:   14775245  HIT:   14755281  MISS:      19964  HIT %:    99.8649  MISS %:   0.135118   MPKI: 0.09982
STLB LOAD TRANSLATION ACCESS:     105091  HIT:      86640  MISS:      18451  HIT %:    82.4428  MISS %:    17.5572   MPKI: 0.092255
STLB TRANSLATION FROM L1D PREFETCHER ACCESS:   14670154  HIT:   14668641  MISS:       1513  HIT %:    99.9897  MISS %:  0.0103135   MPKI: 0.007565
STLB PREFETCH  REQUESTED:          0  ISSUED:          0  USEFUL:       1688  USELESS:          4
STLB USEFUL LOAD PREFETCHES:       1688 PREFETCH ISSUED TO LOWER LEVEL:          0  ACCURACY: inf
STLB TIMELY PREFETCHES:       1688 LATE PREFETCHES: 2328 DROPPED PREFETCHES: 69816
STLB PREFETCHES SAME FILL-ORIGIN LEVEL: 0 DIFFERENT FILL-ORIGIN LEVEL: 0
STLB AVERAGE MISS LATENCY: 679.339 cycles
STLB RQ	ACCESS:   57139135	FORWARD:          0	MERGED:   42119382	TO_CACHE:   15019753

STLB Hit, L1D data hit: 0
STLB Hit, L2C data hit: 0
STLB Hit, LLC data hit: 0
STLB Hit, LLC data miss: 0
STLB STLB hints to L2: 0
L1D TOTAL     ACCESS:  100340691  HIT:   95358246  MISS:    4982445  HIT %:    95.0345  MISS %:    4.96553   MPKI: 24.9122
L1D LOAD      ACCESS:   26268515  HIT:   24023513  MISS:    2245002  HIT %:    91.4536  MISS %:    8.54636   MPKI: 11.225
L1D RFO       ACCESS:   31294438  HIT:   29091967  MISS:    2202471  HIT %:    92.9621  MISS %:     7.0379   MPKI: 11.0124
L1D PREFETCH  ACCESS:   42777738  HIT:   42242766  MISS:     534972  HIT %:    98.7494  MISS %:    1.25059   MPKI: 2.67486
L1D PREFETCH  REQUESTED:  150745411  ISSUED:  138085498  USEFUL:     509242  USELESS:      31708
L1D USEFUL LOAD PREFETCHES:     509242 PREFETCH ISSUED TO LOWER LEVEL:   13770327  ACCURACY: 3.69811
L1D TIMELY PREFETCHES:     509242 LATE PREFETCHES: 19061 DROPPED PREFETCHES: 134554
L1D PREFETCHES SAME FILL-ORIGIN LEVEL: 559997 DIFFERENT FILL-ORIGIN LEVEL: 13210330
L1D AVERAGE MISS LATENCY: 611.77 cycles
L1D RQ	ACCESS:   48997201	FORWARD:          0	MERGED:   20308545	TO_CACHE:   28528149
L1D WQ	ACCESS:   43404306	FORWARD:     203048	MERGED:    1031501	TO_CACHE:   42372805
L1D PQ	ACCESS:   81051880	FORWARD:          0	MERGED:   23975721	TO_CACHE:   57033618

L1D UNIQUE REGIONS ACCESSED: 0
L1D REGIONS CONFLICTS: 0
L1D Cross Page Prefetch Requests: 8582605
L1D Same Page Prefetch Requests: 97889688
L1D ROI Sum of L1D PQ occupancy: 969186567
L1D PREFETCHES PUSHED FROM L2C: 0
L1I TOTAL     ACCESS:   36439814  HIT:   36439814  MISS:          0  HIT %:        100  MISS %:          0   MPKI: 0
L1I LOAD      ACCESS:   36439814  HIT:   36439814  MISS:          0  HIT %:        100  MISS %:          0   MPKI: 0
L1I PREFETCH  REQUESTED:          0  ISSUED:          0  USEFUL:          0  USELESS:          0
L1I USEFUL LOAD PREFETCHES:          0 PREFETCH ISSUED TO LOWER LEVEL:          0  ACCURACY: -nan
L1I TIMELY PREFETCHES:          0 LATE PREFETCHES: 0 DROPPED PREFETCHES: 0
L1I PREFETCHES SAME FILL-ORIGIN LEVEL: 0 DIFFERENT FILL-ORIGIN LEVEL: 0
L1I AVERAGE MISS LATENCY: -nan cycles
L1I RQ	ACCESS:   51928320	FORWARD:          0	MERGED:   15097020	TO_CACHE:   36831300

BTB TOTAL     ACCESS:   20032389  HIT:   20032179  MISS:        210  HIT %:     99.999  MISS %:  0.0010483   MPKI: 0.00105
BTB BRANCH_DIRECT_JUMP	ACCESS:       1588  HIT:       1582  MISS:          6
BTB BRANCH_INDIRECT	ACCESS:          0  HIT:          0  MISS:          0
BTB BRANCH_CONDITIONAL	ACCESS:   20028323  HIT:   20028283  MISS:         40
BTB BRANCH_DIRECT_CALL	ACCESS:       1239  HIT:       1229  MISS:         10
BTB BRANCH_INDIRECT_CALL	ACCESS:          0  HIT:          0  MISS:          0
BTB BRANCH_RETURN	ACCESS:       1239  HIT:       1085  MISS:        154
BTB BRANCH_OTHER ACCESS:          0  HIT:          0  MISS:          0

L2C TOTAL     ACCESS:   17194847  HIT:   12840728  MISS:    4354119  HIT %:    74.6778  MISS %:    25.3222   MPKI: 21.7706
L2C LOAD      ACCESS:    2226050  HIT:    1373356  MISS:     852694  HIT %:    61.6948  MISS %:    38.3052   MPKI: 4.26347
L2C DATA LOAD MPKI: 4.26347
L2C INSTRUCTION LOAD MPKI: 0
L2C RFO       ACCESS:    2202412  HIT:     127668  MISS:    2074744  HIT %:    5.79674  MISS %:    94.2033   MPKI: 10.3737
L2C PREFETCH  ACCESS:   10465982  HIT:    9196293  MISS:    1269689  HIT %:    87.8684  MISS %:    12.1316   MPKI: 6.34844
L2C DATA PREFETCH MPKI: 6.34844
L2C INSTRUCTION PREFETCH MPKI: 0
L2C WRITEBACK ACCESS:    2208560  HIT:    2055464  MISS:     153096  HIT %:    93.0681  MISS %:    6.93194   MPKI: 0.76548
L2C LOAD TRANSLATION ACCESS:      18196  HIT:      15897  MISS:       2299  HIT %:    87.3654  MISS %:    12.6346   MPKI: 0.011495
L2C TRANSLATION FROM L1D PREFETCHER ACCESS:      73647  HIT:      72050  MISS:       1597  HIT %:    97.8315  MISS %:    2.16845   MPKI: 0.007985
L2C PREFETCH  REQUESTED:          0  ISSUED:          0  USEFUL:    1117176  USELESS:     166752
L2C USEFUL LOAD PREFETCHES:    1117176 PREFETCH ISSUED TO LOWER LEVEL:    1880733  ACCURACY: 59.4011
L2C TIMELY PREFETCHES:    1117176 LATE PREFETCHES: 600870 DROPPED PREFETCHES: 0
L2C PREFETCHES SAME FILL-ORIGIN LEVEL: 1797877 DIFFERENT FILL-ORIGIN LEVEL: 0
L2C AVERAGE MISS LATENCY: 887.43 cycles
L2C RQ	ACCESS:    4552654	FORWARD:          0	MERGED:          0	TO_CACHE:    4552594
L2C WQ	ACCESS:    2227256	FORWARD:         70	MERGED:          0	TO_CACHE:    2227256
L2C PQ	ACCESS:   13770149	FORWARD:          0	MERGED:     249076	TO_CACHE:   13521063

L2C Instructions Evicting Data 0
L2C Translations Evicting Data 3949
L2C Data Evicting Data 4222324
L2C Instructions Evicting Instructions 0
L2C Translations Evicting Instructions 0
L2C Data Evicting Instructions 0
L2C Instructions Evicting Translations 0
L2C Translations Evicting Translations 12
L2C Data Evicting Translations 3835
L2C Dense regions hint from L2: 0
PSCL5 TOTAL     ACCESS:      91840  HIT:      91840  MISS:          0  HIT %:        100  MISS %:          0   MPKI: 0
PSCL5 LOAD TRANSLATION ACCESS:      18195  HIT:      18195  MISS:          0  HIT %:        100  MISS %:          0   MPKI: 0
PSCL5 TRANSLATION FROM L1D PREFETCHER ACCESS:      73645  HIT:      73645  MISS:          0  HIT %:        100  MISS %:          0   MPKI: 0
PSCL5 PREFETCH  REQUESTED:          0  ISSUED:          0  USEFUL:          0  USELESS:          0
PSCL5 USEFUL LOAD PREFETCHES:          0 PREFETCH ISSUED TO LOWER LEVEL:          0  ACCURACY: -nan
PSCL5 TIMELY PREFETCHES:          0 LATE PREFETCHES: 0 DROPPED PREFETCHES: 0
PSCL5 PREFETCHES SAME FILL-ORIGIN LEVEL: 0 DIFFERENT FILL-ORIGIN LEVEL: 0

PSCL4 TOTAL     ACCESS:      91840  HIT:      91840  MISS:          0  HIT %:        100  MISS %:          0   MPKI: 0
PSCL4 LOAD TRANSLATION ACCESS:      18195  HIT:      18195  MISS:          0  HIT %:        100  MISS %:          0   MPKI: 0
PSCL4 TRANSLATION FROM L1D PREFETCHER ACCESS:      73645  HIT:      73645  MISS:          0  HIT %:        100  MISS %:          0   MPKI: 0
PSCL4 PREFETCH  REQUESTED:          0  ISSUED:          0  USEFUL:          0  USELESS:          0
PSCL4 USEFUL LOAD PREFETCHES:          0 PREFETCH ISSUED TO LOWER LEVEL:          0  ACCURACY: -nan
PSCL4 TIMELY PREFETCHES:          0 LATE PREFETCHES: 0 DROPPED PREFETCHES: 0
PSCL4 PREFETCHES SAME FILL-ORIGIN LEVEL: 0 DIFFERENT FILL-ORIGIN LEVEL: 0

PSCL3 TOTAL     ACCESS:      91840  HIT:      91840  MISS:          0  HIT %:        100  MISS %:          0   MPKI: 0
PSCL3 LOAD TRANSLATION ACCESS:      18195  HIT:      18195  MISS:          0  HIT %:        100  MISS %:          0   MPKI: 0
PSCL3 TRANSLATION FROM L1D PREFETCHER ACCESS:      73645  HIT:      73645  MISS:          0  HIT %:        100  MISS %:          0   MPKI: 0
PSCL3 PREFETCH  REQUESTED:          0  ISSUED:          0  USEFUL:          0  USELESS:          0
PSCL3 USEFUL LOAD PREFETCHES:          0 PREFETCH ISSUED TO LOWER LEVEL:          0  ACCURACY: -nan
PSCL3 TIMELY PREFETCHES:          0 LATE PREFETCHES: 0 DROPPED PREFETCHES: 0
PSCL3 PREFETCHES SAME FILL-ORIGIN LEVEL: 0 DIFFERENT FILL-ORIGIN LEVEL: 0

PSCL2 TOTAL     ACCESS:      91817  HIT:      91783  MISS:         34  HIT %:     99.963  MISS %:  0.0370302   MPKI: 0.00017
PSCL2 LOAD TRANSLATION ACCESS:      18195  HIT:      18161  MISS:         34  HIT %:    99.8131  MISS %:   0.186865   MPKI: 0.00017
PSCL2 TRANSLATION FROM L1D PREFETCHER ACCESS:      73622  HIT:      73622  MISS:          0  HIT %:        100  MISS %:          0   MPKI: 0
PSCL2 PREFETCH  REQUESTED:          0  ISSUED:          0  USEFUL:          0  USELESS:          0
PSCL2 USEFUL LOAD PREFETCHES:          0 PREFETCH ISSUED TO LOWER LEVEL:          0  ACCURACY: -nan
PSCL2 TIMELY PREFETCHES:          0 LATE PREFETCHES: 0 DROPPED PREFETCHES: 0
PSCL2 PREFETCHES SAME FILL-ORIGIN LEVEL: 0 DIFFERENT FILL-ORIGIN LEVEL: 0

LLC TOTAL     ACCESS:    6287208  HIT:    2459084  MISS:    3828124  HIT %:    39.1125  MISS %:    60.8875   MPKI: 19.1406
LLC LOAD      ACCESS:     255942  HIT:      44958  MISS:     210984  HIT %:    17.5657  MISS %:    82.4343   MPKI: 1.05492
LLC RFO       ACCESS:    2074354  HIT:     140158  MISS:    1934196  HIT %:    6.75671  MISS %:    93.2433   MPKI: 9.67098
LLC PREFETCH  ACCESS:    1866829  HIT:     268483  MISS:    1598346  HIT %:    14.3818  MISS %:    85.6182   MPKI: 7.99173
LLC WRITEBACK ACCESS:    2086187  HIT:    2004671  MISS:      81516  HIT %:    96.0926  MISS %:    3.90742   MPKI: 0.40758
LLC LOAD TRANSLATION ACCESS:       2299  HIT:        603  MISS:       1696  HIT %:    26.2288  MISS %:    73.7712   MPKI: 0.00848
LLC TRANSLATION FROM L1D PREFETCHER ACCESS:       1597  HIT:        211  MISS:       1386  HIT %:    13.2123  MISS %:    86.7877   MPKI: 0.00693
LLC PREFETCH  REQUESTED:          0  ISSUED:          0  USEFUL:     334511  USELESS:    6109036
LLC USEFUL LOAD PREFETCHES:     334511 PREFETCH ISSUED TO LOWER LEVEL:   29890639  ACCURACY: 1.11912
LLC TIMELY PREFETCHES:     334511 LATE PREFETCHES: 0 DROPPED PREFETCHES: 0
LLC PREFETCHES SAME FILL-ORIGIN LEVEL: 0 DIFFERENT FILL-ORIGIN LEVEL: 0
LLC AVERAGE MISS LATENCY: 4216.13 cycles
LLC RQ	ACCESS:    9394278	FORWARD:          0	MERGED:          0	TO_CACHE:    9394276
LLC WQ	ACCESS:    8397083	FORWARD:          6	MERGED:          0	TO_CACHE:    8397083
LLC PQ	ACCESS:    7501056	FORWARD:          0	MERGED:          0	TO_CACHE:    7501052

LLC Dense regions hint to LLC: 0

RAW hits: 2675214
Loads Generated: 51115615
Loads sent to L1D: 48440399
Stores Generated: 42905850
Stores sent to L1D: 42905829
Major fault: 0 Minor fault: 20508
Allocated PAGES: 82032

CPU 3 cumulative IPC: 0.391576 instructions: 200000001 cycles: 510757062
ITLB TOTAL     ACCESS:   36276772  HIT:   36276772  MISS:          0  HIT %:        100  MISS %:          0   MPKI: 0
ITLB LOAD TRANSLATION ACCESS:   36276772  HIT:   36276772  MISS:          0  HIT %:        100  MISS %:          0   MPKI: 0
ITLB PREFETCH  REQUESTED:          0  ISSUED:          0  USEFUL:          0  USELESS:          0
ITLB USEFUL LOAD PREFETCHES:          0 PREFETCH ISSUED TO LOWER LEVEL:          0  ACCURACY: -nan
ITLB TIMELY PREFETCHES:          0 LATE PREFETCHES: 0 DROPPED PREFETCHES: 0
ITLB PREFETCHES SAME FILL-ORIGIN LEVEL: 0 DIFFERENT FILL-ORIGIN LEVEL: 0
ITLB AVERAGE MISS LATENCY: -nan cycles
ITLB RQ	ACCESS:   36861245	FORWARD:          0	MERGED:     181260	TO_CACHE:   36679985

DTLB TOTAL     ACCESS:   54944791  HIT:   54839721  MISS:     105070  HIT %:    99.8088  MISS %:   0.191228   MPKI: 0.52535
DTLB LOAD TRANSLATION ACCESS:   54944791  HIT:   54839721  MISS:     105070  HIT %:    99.8088  MISS %:   0.191228   MPKI: 0.52535
DTLB PREFETCH  REQUESTED:          0  ISSUED:          0  USEFUL:          0  USELESS:          0
DTLB USEFUL LOAD PREFETCHES:          0 PREFETCH ISSUED TO LOWER LEVEL:          0  ACCURACY: -nan
DTLB TIMELY PREFETCHES:          0 LATE PREFETCHES: 0 DROPPED PREFETCHES: 0
DTLB PREFETCHES SAME FILL-ORIGIN LEVEL: 0 DIFFERENT FILL-ORIGIN LEVEL: 0
DTLB AVERAGE MISS LATENCY: 137.127 cycles
DTLB RQ	ACCESS:   70924937	FORWARD:          0	MERGED:   15189881	TO_CACHE:   55735056

STLB TOTAL     ACCESS:   14898304  HIT:   14878344  MISS:      19960  HIT %:     99.866  MISS %:   0.133975   MPKI: 0.0998
STLB LOAD TRANSLATION ACCESS:     105070  HIT:      86604  MISS:      18466  HIT %:     82.425  MISS %:     17.575   MPKI: 0.09233
STLB TRANSLATION FROM L1D PREFETCHER ACCESS:   14793234  HIT:   14791740  MISS:       1494  HIT %:    99.9899  MISS %:  0.0100992   MPKI: 0.00747
STLB PREFETCH  REQUESTED:          0  ISSUED:          0  USEFUL:       1672  USELESS:          8
STLB USEFUL LOAD PREFETCHES:       1672 PREFETCH ISSUED TO LOWER LEVEL:          0  ACCURACY: inf
STLB TIMELY PREFETCHES:       1672 LATE PREFETCHES: 2374 DROPPED PREFETCHES: 62906
STLB PREFETCHES SAME FILL-ORIGIN LEVEL: 0 DIFFERENT FILL-ORIGIN LEVEL: 0
STLB AVERAGE MISS LATENCY: 684.593 cycles
STLB RQ	ACCESS:   56149788	FORWARD:          0	MERGED:   41009883	TO_CACHE:   15139905

STLB Hit, L1D data hit: 0
STLB Hit, L2C data hit: 0
STLB Hit, LLC data hit: 0
STLB Hit, LLC data miss: 0
STLB STLB hints to L2: 0
L1D TOTAL     ACCESS:   99833450  HIT:   94851014  MISS:    4982436  HIT %:    95.0093  MISS %:    4.99075   MPKI: 24.9122
L1D LOAD      ACCESS:   26229234  HIT:   23975406  MISS:    2253828  HIT %:    91.4072  MISS %:    8.59281   MPKI: 11.2691
L1D RFO       ACCESS:   31277660  HIT:   29075198  MISS:    2202462  HIT %:    92.9584  MISS %:    7.04165   MPKI: 11.0123
L1D PREFETCH  ACCESS:   42326556  HIT:   41800410  MISS:     526146  HIT %:    98.7569  MISS %:    1.24306   MPKI: 2.63073
L1D PREFETCH  REQUESTED:  147106540  ISSUED:  135924344  USEFUL:     501101  USELESS:      31814
L1D USEFUL LOAD PREFETCHES:     501101 PREFETCH ISSUED TO LOWER LEVEL:   13184478  ACCURACY: 3.80069
L1D TIMELY PREFETCHES:     501101 LATE PREFETCHES: 18517 DROPPED PREFETCHES: 108918
L1D PREFETCHES SAME FILL-ORIGIN LEVEL: 551408 DIFFERENT FILL-ORIGIN LEVEL: 12633070
L1D AVERAGE MISS LATENCY: 613.729 cycles
L1D RQ	ACCESS:   49036206	FORWARD:          0	MERGED:   20354639	TO_CACHE:   28519608
L1D WQ	ACCESS:   43440845	FORWARD:     203408	MERGED:    1035516	TO_CACHE:   42405329
L1D PQ	ACCESS:   79880083	FORWARD:          0	MERGED:   23794373	TO_CACHE:   56044261

L1D UNIQUE REGIONS ACCESSED: 0
L1D REGIONS CONFLICTS: 0
L1D Cross Page Prefetch Requests: 8468619
L1D Same Page Prefetch Requests: 96757153
L1D ROI Sum of L1D PQ occupancy: 961197471
L1D PREFETCHES PUSHED FROM L2C: 0
L1I TOTAL     ACCESS:   36442326  HIT:   36442326  MISS:          0  HIT %:        100  MISS %:          0   MPKI: 0
L1I LOAD      ACCESS:   36442326  HIT:   36442326  MISS:          0  HIT %:        100  MISS %:          0   MPKI: 0
L1I PREFETCH  REQUESTED:          0  ISSUED:          0  USEFUL:          0  USELESS:          0
L1I USEFUL LOAD PREFETCHES:          0 PREFETCH ISSUED TO LOWER LEVEL:          0  ACCURACY: -nan
L1I TIMELY PREFETCHES:          0 LATE PREFETCHES: 0 DROPPED PREFETCHES: 0
L1I PREFETCHES SAME FILL-ORIGIN LEVEL: 0 DIFFERENT FILL-ORIGIN LEVEL: 0
L1I AVERAGE MISS LATENCY: -nan cycles
L1I RQ	ACCESS:   51973240	FORWARD:          0	MERGED:   15111995	TO_CACHE:   36861245

BTB TOTAL     ACCESS:   20032355  HIT:   20032144  MISS:        211  HIT %:    99.9989  MISS %:  0.0010533   MPKI: 0.001055
BTB BRANCH_DIRECT_JUMP	ACCESS:       1588  HIT:       1582  MISS:          6
BTB BRANCH_INDIRECT	ACCESS:          0  HIT:          0  MISS:          0
BTB BRANCH_CONDITIONAL	ACCESS:   20028289  HIT:   20028248  MISS:         41
BTB BRANCH_DIRECT_CALL	ACCESS:       1239  HIT:       1229  MISS:         10
BTB BRANCH_INDIRECT_CALL	ACCESS:          0  HIT:          0  MISS:          0
BTB BRANCH_RETURN	ACCESS:       1239  HIT:       1085  MISS:        154
BTB BRANCH_OTHER ACCESS:          0  HIT:          0  MISS:          0

L2C TOTAL     ACCESS:   16632741  HIT:   12280305  MISS:    4352436  HIT %:    73.8321  MISS %:    26.1679   MPKI: 21.7622
L2C LOAD      ACCESS:    2235358  HIT:    1384156  MISS:     851202  HIT %:     61.921  MISS %:     38.079   MPKI: 4.25601
L2C DATA LOAD MPKI: 4.25601
L2C INSTRUCTION LOAD MPKI: 0
L2C RFO       ACCESS:    2202422  HIT:     127515  MISS:    2074907  HIT %:    5.78976  MISS %:    94.2102   MPKI: 10.3745
L2C PREFETCH  ACCESS:    9901481  HIT:    8632190  MISS:    1269291  HIT %:    87.1808  MISS %:    12.8192   MPKI: 6.34645
L2C DATA PREFETCH MPKI: 6.34645
L2C INSTRUCTION PREFETCH MPKI: 0
L2C WRITEBACK ACCESS:    2208526  HIT:    2055397  MISS:     153129  HIT %:    93.0665  MISS %:    6.93354   MPKI: 0.765645
L2C LOAD TRANSLATION ACCESS:      18189  HIT:      15895  MISS:       2294  HIT %:     87.388  MISS %:     12.612   MPKI: 0.01147
L2C TRANSLATION FROM L1D PREFETCHER ACCESS:      66765  HIT:      65152  MISS:       1613  HIT %:    97.5841  MISS %:    2.41594   MPKI: 0.008065
L2C PREFETCH  REQUESTED:          0  ISSUED:          0  USEFUL:    1120340  USELESS:     163938
L2C USEFUL LOAD PREFETCHES:    1120340 PREFETCH ISSUED TO LOWER LEVEL:    1878722  ACCURACY: 59.6331
L2C TIMELY PREFETCHES:    1120340 LATE PREFETCHES: 598645 DROPPED PREFETCHES: 0
L2C PREFETCHES SAME FILL-ORIGIN LEVEL: 1796528 DIFFERENT FILL-ORIGIN LEVEL: 0
L2C AVERAGE MISS LATENCY: 889.892 cycles
L2C RQ	ACCESS:    4557404	FORWARD:          0	MERGED:          0	TO_CACHE:    4557362
L2C WQ	ACCESS:    2228444	FORWARD:         55	MERGED:          0	TO_CACHE:    2228444
L2C PQ	ACCESS:   13184185	FORWARD:          0	MERGED:     243414	TO_CACHE:   12940758

L2C Instructions Evicting Data 0
L2C Translations Evicting Data 3977
L2C Data Evicting Data 4222797
L2C Instructions Evicting Instructions 0
L2C Translations Evicting Instructions 0
L2C Data Evicting Instructions 0
L2C Instructions Evicting Translations 0
L2C Translations Evicting Translations 4
L2C Data Evicting Translations 3839
L2C Dense regions hint from L2: 0
PSCL5 TOTAL     ACCESS:      84950  HIT:      84950  MISS:          0  HIT %:        100  MISS %:          0   MPKI: 0
PSCL5 LOAD TRANSLATION ACCESS:      18189  HIT:      18189  MISS:          0  HIT %:        100  MISS %:          0   MPKI: 0
PSCL5 TRANSLATION FROM L1D PREFETCHER ACCESS:      66761  HIT:      66761  MISS:          0  HIT %:        100  MISS %:          0   MPKI: 0
PSCL5 PREFETCH  REQUESTED:          0  ISSUED:          0  USEFUL:          0  USELESS:          0
PSCL5 USEFUL LOAD PREFETCHES:          0 PREFETCH ISSUED TO LOWER LEVEL:          0  ACCURACY: -nan
PSCL5 TIMELY PREFETCHES:          0 LATE PREFETCHES: 0 DROPPED PREFETCHES: 0
PSCL5 PREFETCHES SAME FILL-ORIGIN LEVEL: 0 DIFFERENT FILL-ORIGIN LEVEL: 0

PSCL4 TOTAL     ACCESS:      84950  HIT:      84950  MISS:          0  HIT %:        100  MISS %:          0   MPKI: 0
PSCL4 LOAD TRANSLATION ACCESS:      18189  HIT:      18189  MISS:          0  HIT %:        100  MISS %:          0   MPKI: 0
PSCL4 TRANSLATION FROM L1D PREFETCHER ACCESS:      66761  HIT:      66761  MISS:          0  HIT %:        100  MISS %:          0   MPKI: 0
PSCL4 PREFETCH  REQUESTED:          0  ISSUED:          0  USEFUL:          0  USELESS:          0
PSCL4 USEFUL LOAD PREFETCHES:          0 PREFETCH ISSUED TO LOWER LEVEL:          0  ACCURACY: -nan
PSCL4 TIMELY PREFETCHES:          0 LATE PREFETCHES: 0 DROPPED PREFETCHES: 0
PSCL4 PREFETCHES SAME FILL-ORIGIN LEVEL: 0 DIFFERENT FILL-ORIGIN LEVEL: 0

PSCL3 TOTAL     ACCESS:      84950  HIT:      84950  MISS:          0  HIT %:        100  MISS %:          0   MPKI: 0
PSCL3 LOAD TRANSLATION ACCESS:      18189  HIT:      18189  MISS:          0  HIT %:        100  MISS %:          0   MPKI: 0
PSCL3 TRANSLATION FROM L1D PREFETCHER ACCESS:      66761  HIT:      66761  MISS:          0  HIT %:        100  MISS %:          0   MPKI: 0
PSCL3 PREFETCH  REQUESTED:          0  ISSUED:          0  USEFUL:          0  USELESS:          0
PSCL3 USEFUL LOAD PREFETCHES:          0 PREFETCH ISSUED TO LOWER LEVEL:          0  ACCURACY: -nan
PSCL3 TIMELY PREFETCHES:          0 LATE PREFETCHES: 0 DROPPED PREFETCHES: 0
PSCL3 PREFETCHES SAME FILL-ORIGIN LEVEL: 0 DIFFERENT FILL-ORIGIN LEVEL: 0

PSCL2 TOTAL     ACCESS:      84914  HIT:      84882  MISS:         32  HIT %:    99.9623  MISS %:  0.0376852   MPKI: 0.00016
PSCL2 LOAD TRANSLATION ACCESS:      18190  HIT:      18158  MISS:         32  HIT %:    99.8241  MISS %:   0.175921   MPKI: 0.00016
PSCL2 TRANSLATION FROM L1D PREFETCHER ACCESS:      66724  HIT:      66724  MISS:          0  HIT %:        100  MISS %:          0   MPKI: 0
PSCL2 PREFETCH  REQUESTED:          0  ISSUED:          0  USEFUL:          0  USELESS:          0
PSCL2 USEFUL LOAD PREFETCHES:          0 PREFETCH ISSUED TO LOWER LEVEL:          0  ACCURACY: -nan
PSCL2 TIMELY PREFETCHES:          0 LATE PREFETCHES: 0 DROPPED PREFETCHES: 0
PSCL2 PREFETCHES SAME FILL-ORIGIN LEVEL: 0 DIFFERENT FILL-ORIGIN LEVEL: 0

LLC TOTAL     ACCESS:    6285299  HIT:    2456064  MISS:    3829235  HIT %:    39.0763  MISS %:    60.9237   MPKI: 19.1462
LLC LOAD      ACCESS:     256914  HIT:      45411  MISS:     211503  HIT %:    17.6756  MISS %:    82.3244   MPKI: 1.05751
LLC RFO       ACCESS:    2074475  HIT:     136672  MISS:    1937803  HIT %:    6.58827  MISS %:    93.4117   MPKI: 9.68901
LLC PREFETCH  ACCESS:    1864010  HIT:     267981  MISS:    1596029  HIT %:    14.3766  MISS %:    85.6234   MPKI: 7.98014
LLC WRITEBACK ACCESS:    2085993  HIT:    2005186  MISS:      80807  HIT %:    96.1262  MISS %:    3.87379   MPKI: 0.404035
LLC LOAD TRANSLATION ACCESS:       2294  HIT:        608  MISS:       1686  HIT %:    26.5039  MISS %:    73.4961   MPKI: 0.00843
LLC TRANSLATION FROM L1D PREFETCHER ACCESS:       1613  HIT:        206  MISS:       1407  HIT %:    12.7712  MISS %:    87.2288   MPKI: 0.007035
LLC PREFETCH  REQUESTED:          0  ISSUED:          0  USEFUL:     334511  USELESS:    6109036
LLC USEFUL LOAD PREFETCHES:     334511 PREFETCH ISSUED TO LOWER LEVEL:   29890639  ACCURACY: 1.11912
LLC TIMELY PREFETCHES:     334511 LATE PREFETCHES: 0 DROPPED PREFETCHES: 0
LLC PREFETCHES SAME FILL-ORIGIN LEVEL: 0 DIFFERENT FILL-ORIGIN LEVEL: 0
LLC AVERAGE MISS LATENCY: 4214.9 cycles
LLC RQ	ACCESS:    9394278	FORWARD:          0	MERGED:          0	TO_CACHE:    9394276
LLC WQ	ACCESS:    8397083	FORWARD:          6	MERGED:          0	TO_CACHE:    8397083
LLC PQ	ACCESS:    7501056	FORWARD:          0	MERGED:          0	TO_CACHE:    7501052

LLC Dense regions hint to LLC: 0

RAW hits: 2676789
Loads Generated: 51115595
Loads sent to L1D: 48438804
Stores Generated: 42905831
Stores sent to L1D: 42905827
Major fault: 0 Minor fault: 20508
Allocated PAGES: 82032

DRAM Statistics
 CHANNEL 0
 RQ ROW_BUFFER_HIT:    3467873  ROW_BUFFER_MISS:   11600513
 DBUS_CONGESTED:          0
 WQ ROW_BUFFER_HIT:     749959  ROW_BUFFER_MISS:    7418272  FULL:          0

 AVG_CONGESTED_CYCLE: -
 All warmup complete: 5
Channel 0 Bank busy for read cycles: 0
Channel 0 Bank busy for write cycles: 0
Channel 0
Rank 0
0banks busy for read cycles: 1565
0banks busy for write cycles: 0
1banks busy for read cycles: 998951
1banks busy for write cycles: 818541
2banks busy for read cycles: 1582525
2banks busy for write cycles: 818540
3banks busy for read cycles: 3030935
3banks busy for write cycles: 818542
4banks busy for read cycles: 6089959
4banks busy for write cycles: 818989
5banks busy for read cycles: 12078330
5banks busy for write cycles: 845129
6banks busy for read cycles: 24167587
6banks busy for write cycles: 1641163
7banks busy for read cycles: 56917244
7banks busy for write cycles: 20746790
8banks busy for read cycles: 194602317
8banks busy for write cycles: 189040952

CPU 0 Branch Prediction Accuracy: 99.0667% MPKI: 0.945531 Average ROB Occupancy at Mispredict: 154.15
Branch types
NOT_BRANCH: 182399178 89.8692%
BRANCH_DIRECT_JUMP: 1639 0.000807546%
BRANCH_INDIRECT: 0 0%
BRANCH_CONDITIONAL: 20557534 10.1288%
BRANCH_DIRECT_CALL: 1303 0.000641996%
BRANCH_INDIRECT_CALL: 0 0%
BRANCH_RETURN: 1304 0.000642489%
BRANCH_OTHER: 0 0%


CPU 1 Branch Prediction Accuracy: 99.0546% MPKI: 0.958933 Average ROB Occupancy at Mispredict: 154.191
Branch types
NOT_BRANCH: 179712936 89.8565%
BRANCH_DIRECT_JUMP: 1588 0.000794%
BRANCH_INDIRECT: 0 0%
BRANCH_CONDITIONAL: 20283284 10.1416%
BRANCH_DIRECT_CALL: 1239 0.0006195%
BRANCH_INDIRECT_CALL: 0 0%
BRANCH_RETURN: 1239 0.0006195%
BRANCH_OTHER: 0 0%


CPU 2 Branch Prediction Accuracy: 99.0636% MPKI: 0.948925 Average ROB Occupancy at Mispredict: 154.691
Branch types
NOT_BRANCH: 181729012 89.8659%
BRANCH_DIRECT_JUMP: 1635 0.000808516%
BRANCH_INDIRECT: 0 0%
BRANCH_CONDITIONAL: 20489516 10.1322%
BRANCH_DIRECT_CALL: 1299 0.000642362%
BRANCH_INDIRECT_CALL: 0 0%
BRANCH_RETURN: 1300 0.000642857%
BRANCH_OTHER: 0 0%


CPU 3 Branch Prediction Accuracy: 99.0643% MPKI: 0.948188 Average ROB Occupancy at Mispredict: 154.332
Branch types
NOT_BRANCH: 181875095 89.8669%
BRANCH_DIRECT_JUMP: 1636 0.000808369%
BRANCH_INDIRECT: 0 0%
BRANCH_CONDITIONAL: 20503839 10.1312%
BRANCH_DIRECT_CALL: 1300 0.000642347%
BRANCH_INDIRECT_CALL: 0 0%
BRANCH_RETURN: 1301 0.000642841%
BRANCH_OTHER: 0 0%

DRAM PAGES: 1048576
Allocated PAGES: 82032
