
*** ChampSim Multicore Out-of-Order Simulator ***

Warmup Instructions: 50000000
Simulation Instructions: 200000000
Number of CPUs: 4
LLC sets: 8192
LLC ways: 16
Off-chip DRAM Size: 4096 MB Channels: 1 Width: 64-bit Data Rate: 6400 MT/s
CPU 0 runs ./traces/spec/471.omnetpp-188B.champsimtrace.xz
.xz
CPU 1 runs ./traces/spec/619.lbm_s-2676B.champsimtrace.xz
.xz
CPU 2 runs ./traces/ligra/ligra_BFSCC.com-lj.ungraph.gcc_6.3.0_O3.drop_18750M.length_250M.champsimtrace.xz
.xz
CPU 3 runs ./traces/ligra/ligra_BellmanFord.com-lj.ungraph.gcc_6.3.0_O3.drop_14000M.length_250M.champsimtrace.xz
.xz
BTB has LRU replacement policy
ITLB has LRU replacement policy
DTLB has LRU replacement policy
STLB has LRU replacement policy
L1I has LRU replacement policy
History Sets: 8
History Ways: 16
BERTI Size: 16
BERTI Stride Size: 8
L1D has LRU replacement policy
Initialize SRRIP state for L2C
Initialize DRRIP state for LLC
BTB has LRU replacement policy
ITLB has LRU replacement policy
DTLB has LRU replacement policy
STLB has LRU replacement policy
L1I has LRU replacement policy
History Sets: 8
History Ways: 16
BERTI Size: 16
BERTI Stride Size: 8
L1D has LRU replacement policy
Initialize SRRIP state for L2C
Initialize DRRIP state for LLC
BTB has LRU replacement policy
ITLB has LRU replacement policy
DTLB has LRU replacement policy
STLB has LRU replacement policy
L1I has LRU replacement policy
History Sets: 8
History Ways: 16
BERTI Size: 16
BERTI Stride Size: 8
L1D has LRU replacement policy
Initialize SRRIP state for L2C
Initialize DRRIP state for LLC
BTB has LRU replacement policy
ITLB has LRU replacement policy
DTLB has LRU replacement policy
STLB has LRU replacement policy
L1I has LRU replacement policy
History Sets: 8
History Ways: 16
BERTI Size: 16
BERTI Stride Size: 8
L1D has LRU replacement policy
Initialize SRRIP state for L2C
Initialize DRRIP state for LLC
Heartbeat CPU 2 instructions: 10000002 cycles: 2549452 heartbeat IPC: 3.92241 cumulative IPC: 3.92241 (Simulation time: 0 hr 7 min 22 sec) 
Heartbeat CPU 3 instructions: 10000000 cycles: 2880511 heartbeat IPC: 3.47161 cumulative IPC: 3.47161 (Simulation time: 0 hr 8 min 21 sec) 
Heartbeat CPU 1 instructions: 10000003 cycles: 2900522 heartbeat IPC: 3.44766 cumulative IPC: 3.44766 (Simulation time: 0 hr 8 min 24 sec) 
Heartbeat CPU 0 instructions: 10000003 cycles: 3186901 heartbeat IPC: 3.13785 cumulative IPC: 3.13785 (Simulation time: 0 hr 9 min 7 sec) 
Heartbeat CPU 2 instructions: 20000003 cycles: 5098287 heartbeat IPC: 3.92336 cumulative IPC: 3.92289 (Simulation time: 0 hr 13 min 8 sec) 
Heartbeat CPU 3 instructions: 20000002 cycles: 5755878 heartbeat IPC: 3.47782 cumulative IPC: 3.47471 (Simulation time: 0 hr 14 min 27 sec) 
Heartbeat CPU 1 instructions: 20000003 cycles: 5795813 heartbeat IPC: 3.45388 cumulative IPC: 3.45077 (Simulation time: 0 hr 14 min 32 sec) 
Heartbeat CPU 0 instructions: 20000003 cycles: 6325622 heartbeat IPC: 3.18601 cumulative IPC: 3.16174 (Simulation time: 0 hr 15 min 24 sec) 
Heartbeat CPU 2 instructions: 30000001 cycles: 7647313 heartbeat IPC: 3.92307 cumulative IPC: 3.92295 (Simulation time: 0 hr 17 min 32 sec) 
Heartbeat CPU 3 instructions: 30000000 cycles: 8633161 heartbeat IPC: 3.4755 cumulative IPC: 3.47497 (Simulation time: 0 hr 19 min 8 sec) 
Heartbeat CPU 1 instructions: 30000003 cycles: 8683363 heartbeat IPC: 3.46314 cumulative IPC: 3.45488 (Simulation time: 0 hr 19 min 12 sec) 
Heartbeat CPU 0 instructions: 30000000 cycles: 9504055 heartbeat IPC: 3.1462 cumulative IPC: 3.15655 (Simulation time: 0 hr 20 min 31 sec) 
Heartbeat CPU 2 instructions: 40000002 cycles: 10196288 heartbeat IPC: 3.92315 cumulative IPC: 3.923 (Simulation time: 0 hr 21 min 36 sec) 
Heartbeat CPU 3 instructions: 40000001 cycles: 11510914 heartbeat IPC: 3.47493 cumulative IPC: 3.47496 (Simulation time: 0 hr 23 min 39 sec) 
Heartbeat CPU 1 instructions: 40000002 cycles: 11556090 heartbeat IPC: 3.48101 cumulative IPC: 3.46138 (Simulation time: 0 hr 23 min 43 sec) 
Heartbeat CPU 0 instructions: 40000002 cycles: 12660644 heartbeat IPC: 3.16798 cumulative IPC: 3.1594 (Simulation time: 0 hr 25 min 25 sec) 
Heartbeat CPU 2 instructions: 50000001 cycles: 12745286 heartbeat IPC: 3.92311 cumulative IPC: 3.92302 (Simulation time: 0 hr 25 min 33 sec) 
Heartbeat CPU 3 instructions: 50000003 cycles: 14392627 heartbeat IPC: 3.47016 cumulative IPC: 3.474 (Simulation time: 0 hr 27 min 40 sec) 
Heartbeat CPU 1 instructions: 50000001 cycles: 14415245 heartbeat IPC: 3.49754 cumulative IPC: 3.46855 (Simulation time: 0 hr 27 min 42 sec) 
Heartbeat CPU 0 instructions: 50000003 cycles: 15819205 heartbeat IPC: 3.166 cumulative IPC: 3.16072 (Simulation time: 0 hr 29 min 9 sec) 

Warmup complete CPU 0 instructions: 50000003 cycles: 15819205 (Simulation time: 0 hr 29 min 9 sec) 
Warmup complete CPU 1 instructions: 54928594 cycles: 15819204 (Simulation time: 0 hr 29 min 9 sec) 
Warmup complete CPU 2 instructions: 58709949 cycles: 15819204 (Simulation time: 0 hr 29 min 9 sec) 
Warmup complete CPU 3 instructions: 53455373 cycles: 15819204 (Simulation time: 0 hr 29 min 9 sec) 

Heartbeat CPU 2 instructions: 60000001 cycles: 19598458 heartbeat IPC: 1.45918 cumulative IPC: 0.341351 (Simulation time: 0 hr 30 min 2 sec) 
Heartbeat CPU 3 instructions: 60000002 cycles: 25485387 heartbeat IPC: 0.901489 cumulative IPC: 0.677064 (Simulation time: 0 hr 31 min 20 sec) 
Heartbeat CPU 1 instructions: 60000002 cycles: 26879194 heartbeat IPC: 0.802314 cumulative IPC: 0.458536 (Simulation time: 0 hr 31 min 38 sec) 
Heartbeat CPU 3 instructions: 70000002 cycles: 40119819 heartbeat IPC: 0.68332 cumulative IPC: 0.680832 (Simulation time: 0 hr 34 min 36 sec) 
Heartbeat CPU 1 instructions: 70000002 cycles: 47664548 heartbeat IPC: 0.481108 cumulative IPC: 0.473269 (Simulation time: 0 hr 36 min 16 sec) 
Heartbeat CPU 2 instructions: 70000001 cycles: 49605232 heartbeat IPC: 0.333258 cumulative IPC: 0.334163 (Simulation time: 0 hr 36 min 42 sec) 
Heartbeat CPU 3 instructions: 80000003 cycles: 54772130 heartbeat IPC: 0.682486 cumulative IPC: 0.681454 (Simulation time: 0 hr 37 min 51 sec) 
Heartbeat CPU 1 instructions: 80000002 cycles: 66528291 heartbeat IPC: 0.530118 cumulative IPC: 0.494416 (Simulation time: 0 hr 40 min 29 sec) 
Heartbeat CPU 3 instructions: 90000000 cycles: 69377390 heartbeat IPC: 0.684685 cumulative IPC: 0.682335 (Simulation time: 0 hr 41 min 8 sec) 
Heartbeat CPU 2 instructions: 80000000 cycles: 79731333 heartbeat IPC: 0.331938 cumulative IPC: 0.333114 (Simulation time: 0 hr 43 min 24 sec) 
Heartbeat CPU 3 instructions: 100000002 cycles: 84100056 heartbeat IPC: 0.679225 cumulative IPC: 0.681664 (Simulation time: 0 hr 44 min 23 sec) 
Heartbeat CPU 1 instructions: 90000000 cycles: 85275620 heartbeat IPC: 0.533409 cumulative IPC: 0.504941 (Simulation time: 0 hr 44 min 39 sec) 
Heartbeat CPU 3 instructions: 110000000 cycles: 98813691 heartbeat IPC: 0.679642 cumulative IPC: 0.681306 (Simulation time: 0 hr 47 min 45 sec) 
Heartbeat CPU 1 instructions: 100000001 cycles: 102923251 heartbeat IPC: 0.566648 cumulative IPC: 0.517443 (Simulation time: 0 hr 48 min 41 sec) 
Heartbeat CPU 2 instructions: 90000000 cycles: 109699587 heartbeat IPC: 0.333686 cumulative IPC: 0.333297 (Simulation time: 0 hr 50 min 14 sec) 
Heartbeat CPU 3 instructions: 120000000 cycles: 113504018 heartbeat IPC: 0.68072 cumulative IPC: 0.681218 (Simulation time: 0 hr 51 min 8 sec) 
Heartbeat CPU 1 instructions: 110000000 cycles: 120235953 heartbeat IPC: 0.577611 cumulative IPC: 0.527419 (Simulation time: 0 hr 52 min 40 sec) 
Heartbeat CPU 3 instructions: 130000000 cycles: 128206950 heartbeat IPC: 0.680136 cumulative IPC: 0.681076 (Simulation time: 0 hr 54 min 34 sec) 
Heartbeat CPU 1 instructions: 120000002 cycles: 136641248 heartbeat IPC: 0.609559 cumulative IPC: 0.538572 (Simulation time: 0 hr 56 min 30 sec) 
Heartbeat CPU 2 instructions: 100000002 cycles: 139740313 heartbeat IPC: 0.332882 cumulative IPC: 0.333196 (Simulation time: 0 hr 57 min 12 sec) 
Heartbeat CPU 3 instructions: 140000001 cycles: 142821869 heartbeat IPC: 0.684232 cumulative IPC: 0.681439 (Simulation time: 0 hr 57 min 54 sec) 
Heartbeat CPU 1 instructions: 130000003 cycles: 152311654 heartbeat IPC: 0.638146 cumulative IPC: 0.550004 (Simulation time: 1 hr 0 min 9 sec) 
Heartbeat CPU 3 instructions: 150000000 cycles: 157280875 heartbeat IPC: 0.69161 cumulative IPC: 0.682479 (Simulation time: 1 hr 1 min 18 sec) 
Heartbeat CPU 1 instructions: 140000003 cycles: 167998374 heartbeat IPC: 0.637482 cumulative IPC: 0.559021 (Simulation time: 1 hr 3 min 53 sec) 
Heartbeat CPU 0 instructions: 60000000 cycles: 168452401 heartbeat IPC: 0.0655165 cumulative IPC: 0.0655165 (Simulation time: 1 hr 3 min 59 sec) 
Heartbeat CPU 2 instructions: 110000000 cycles: 170040465 heartbeat IPC: 0.330031 cumulative IPC: 0.332574 (Simulation time: 1 hr 4 min 21 sec) 
Heartbeat CPU 3 instructions: 160000000 cycles: 171850427 heartbeat IPC: 0.686363 cumulative IPC: 0.682842 (Simulation time: 1 hr 4 min 47 sec) 
Heartbeat CPU 1 instructions: 150000003 cycles: 182711620 heartbeat IPC: 0.67966 cumulative IPC: 0.569657 (Simulation time: 1 hr 7 min 24 sec) 
Heartbeat CPU 3 instructions: 170000002 cycles: 186452851 heartbeat IPC: 0.684818 cumulative IPC: 0.683011 (Simulation time: 1 hr 8 min 18 sec) 
Heartbeat CPU 1 instructions: 160000000 cycles: 196885823 heartbeat IPC: 0.705507 cumulative IPC: 0.580291 (Simulation time: 1 hr 10 min 45 sec) 
Heartbeat CPU 3 instructions: 180000000 cycles: 200951142 heartbeat IPC: 0.689736 cumulative IPC: 0.683538 (Simulation time: 1 hr 11 min 40 sec) 
Heartbeat CPU 2 instructions: 120000003 cycles: 201618941 heartbeat IPC: 0.316671 cumulative IPC: 0.329872 (Simulation time: 1 hr 11 min 48 sec) 
Heartbeat CPU 1 instructions: 170000003 cycles: 211012093 heartbeat IPC: 0.707901 cumulative IPC: 0.589527 (Simulation time: 1 hr 13 min 57 sec) 
Heartbeat CPU 3 instructions: 190000001 cycles: 215512609 heartbeat IPC: 0.686744 cumulative IPC: 0.683771 (Simulation time: 1 hr 15 min 1 sec) 
Heartbeat CPU 1 instructions: 180000000 cycles: 225060352 heartbeat IPC: 0.711832 cumulative IPC: 0.597738 (Simulation time: 1 hr 17 min 17 sec) 
Heartbeat CPU 3 instructions: 200000002 cycles: 229900959 heartbeat IPC: 0.695007 cumulative IPC: 0.684527 (Simulation time: 1 hr 18 min 27 sec) 
Heartbeat CPU 2 instructions: 130000002 cycles: 233488430 heartbeat IPC: 0.31378 cumulative IPC: 0.327516 (Simulation time: 1 hr 19 min 23 sec) 
Heartbeat CPU 1 instructions: 190000000 cycles: 238646834 heartbeat IPC: 0.736026 cumulative IPC: 0.60617 (Simulation time: 1 hr 20 min 38 sec) 
Heartbeat CPU 3 instructions: 210000000 cycles: 244465689 heartbeat IPC: 0.68659 cumulative IPC: 0.684658 (Simulation time: 1 hr 22 min 3 sec) 
Heartbeat CPU 1 instructions: 200000002 cycles: 252106430 heartbeat IPC: 0.742965 cumulative IPC: 0.613962 (Simulation time: 1 hr 23 min 52 sec) 
Heartbeat CPU 3 instructions: 220000000 cycles: 259088617 heartbeat IPC: 0.683858 cumulative IPC: 0.68461 (Simulation time: 1 hr 25 min 31 sec) 
Heartbeat CPU 1 instructions: 210000000 cycles: 265292568 heartbeat IPC: 0.758372 cumulative IPC: 0.621595 (Simulation time: 1 hr 27 min 2 sec) 
Heartbeat CPU 2 instructions: 140000003 cycles: 265957354 heartbeat IPC: 0.307987 cumulative IPC: 0.324981 (Simulation time: 1 hr 27 min 10 sec) 
Heartbeat CPU 3 instructions: 230000000 cycles: 273584131 heartbeat IPC: 0.689869 cumulative IPC: 0.684906 (Simulation time: 1 hr 28 min 58 sec) 
Heartbeat CPU 1 instructions: 220000000 cycles: 278725685 heartbeat IPC: 0.744429 cumulative IPC: 0.627871 (Simulation time: 1 hr 30 min 12 sec) 
Heartbeat CPU 3 instructions: 240000002 cycles: 288037074 heartbeat IPC: 0.691901 cumulative IPC: 0.685277 (Simulation time: 1 hr 32 min 26 sec) 
Heartbeat CPU 1 instructions: 230000002 cycles: 291236564 heartbeat IPC: 0.799304 cumulative IPC: 0.635659 (Simulation time: 1 hr 33 min 18 sec) 
Heartbeat CPU 2 instructions: 150000002 cycles: 299206597 heartbeat IPC: 0.300759 cumulative IPC: 0.322139 (Simulation time: 1 hr 35 min 23 sec) 
*** Reached end of trace for Core: 3 Repeating trace: ./traces/ligra/ligra_BellmanFord.com-lj.ungraph.gcc_6.3.0_O3.drop_14000M.length_250M.champsimtrace.xz
Heartbeat CPU 3 instructions: 250000000 cycles: 302474509 heartbeat IPC: 0.692644 cumulative IPC: 0.685648 (Simulation time: 1 hr 36 min 16 sec) 
Heartbeat CPU 1 instructions: 240000001 cycles: 302695548 heartbeat IPC: 0.872678 cumulative IPC: 0.645126 (Simulation time: 1 hr 36 min 20 sec) 
Finished CPU 3 instructions: 200000003 cycles: 291555490 cumulative IPC: 0.685976 (Simulation time: 1 hr 37 min 34 sec) 
Heartbeat CPU 0 instructions: 70000001 cycles: 308542548 heartbeat IPC: 0.0713826 cumulative IPC: 0.0683239 (Simulation time: 1 hr 37 min 53 sec) 
Heartbeat CPU 1 instructions: 250000002 cycles: 313967013 heartbeat IPC: 0.887196 cumulative IPC: 0.654278 (Simulation time: 1 hr 39 min 19 sec) 
Heartbeat CPU 3 instructions: 260000002 cycles: 316784988 heartbeat IPC: 0.698789 cumulative IPC: 0.686273 (Simulation time: 1 hr 40 min 2 sec) 
Finished CPU 1 instructions: 200000000 cycles: 303827656 cumulative IPC: 0.658268 (Simulation time: 1 hr 40 min 43 sec) 
Heartbeat CPU 1 instructions: 260000001 cycles: 325406364 heartbeat IPC: 0.874175 cumulative IPC: 0.662403 (Simulation time: 1 hr 42 min 16 sec) 
Heartbeat CPU 3 instructions: 270000000 cycles: 331008231 heartbeat IPC: 0.703074 cumulative IPC: 0.687031 (Simulation time: 1 hr 43 min 50 sec) 
Heartbeat CPU 2 instructions: 160000000 cycles: 336218508 heartbeat IPC: 0.270183 cumulative IPC: 0.316137 (Simulation time: 1 hr 45 min 20 sec) 
Heartbeat CPU 1 instructions: 270000003 cycles: 336322455 heartbeat IPC: 0.916079 cumulative IPC: 0.671043 (Simulation time: 1 hr 45 min 21 sec) 
Heartbeat CPU 3 instructions: 280000001 cycles: 345412537 heartbeat IPC: 0.694237 cumulative IPC: 0.687346 (Simulation time: 1 hr 48 min 2 sec) 
Heartbeat CPU 1 instructions: 280000001 cycles: 347170262 heartbeat IPC: 0.921845 cumulative IPC: 0.679254 (Simulation time: 1 hr 48 min 32 sec) 
Heartbeat CPU 1 instructions: 290000000 cycles: 358937710 heartbeat IPC: 0.849802 cumulative IPC: 0.685103 (Simulation time: 1 hr 51 min 46 sec) 
Heartbeat CPU 3 instructions: 290000000 cycles: 359833013 heartbeat IPC: 0.693458 cumulative IPC: 0.687602 (Simulation time: 1 hr 52 min 0 sec) 
Heartbeat CPU 2 instructions: 170000000 cycles: 366035019 heartbeat IPC: 0.335385 cumulative IPC: 0.317776 (Simulation time: 1 hr 53 min 43 sec) 
Heartbeat CPU 1 instructions: 300000003 cycles: 370944187 heartbeat IPC: 0.832884 cumulative IPC: 0.690099 (Simulation time: 1 hr 55 min 1 sec) 
Heartbeat CPU 3 instructions: 300000000 cycles: 374255899 heartbeat IPC: 0.693343 cumulative IPC: 0.687833 (Simulation time: 1 hr 55 min 53 sec) 
Heartbeat CPU 1 instructions: 310000000 cycles: 382877477 heartbeat IPC: 0.837992 cumulative IPC: 0.694907 (Simulation time: 1 hr 58 min 16 sec) 
Heartbeat CPU 3 instructions: 310000003 cycles: 388721962 heartbeat IPC: 0.691273 cumulative IPC: 0.687967 (Simulation time: 1 hr 59 min 51 sec) 
Heartbeat CPU 1 instructions: 320000001 cycles: 394744762 heartbeat IPC: 0.842653 cumulative IPC: 0.699534 (Simulation time: 2 hr 1 min 34 sec) 
Heartbeat CPU 2 instructions: 180000000 cycles: 396189856 heartbeat IPC: 0.331622 cumulative IPC: 0.318873 (Simulation time: 2 hr 1 min 59 sec) 
Heartbeat CPU 3 instructions: 320000003 cycles: 403164174 heartbeat IPC: 0.692415 cumulative IPC: 0.688132 (Simulation time: 2 hr 3 min 51 sec) 
Heartbeat CPU 1 instructions: 330000000 cycles: 406647085 heartbeat IPC: 0.840172 cumulative IPC: 0.703817 (Simulation time: 2 hr 4 min 46 sec) 
Heartbeat CPU 3 instructions: 330000000 cycles: 417609235 heartbeat IPC: 0.692278 cumulative IPC: 0.688281 (Simulation time: 2 hr 7 min 47 sec) 
Heartbeat CPU 1 instructions: 340000001 cycles: 418769497 heartbeat IPC: 0.824918 cumulative IPC: 0.70746 (Simulation time: 2 hr 8 min 5 sec) 
Heartbeat CPU 2 instructions: 190000001 cycles: 426464765 heartbeat IPC: 0.330307 cumulative IPC: 0.319716 (Simulation time: 2 hr 10 min 12 sec) 
Heartbeat CPU 3 instructions: 340000002 cycles: 432014761 heartbeat IPC: 0.694178 cumulative IPC: 0.688486 (Simulation time: 2 hr 11 min 52 sec) 
Heartbeat CPU 1 instructions: 350000002 cycles: 434034147 heartbeat IPC: 0.655108 cumulative IPC: 0.70555 (Simulation time: 2 hr 12 min 29 sec) 
Heartbeat CPU 3 instructions: 350000003 cycles: 446546993 heartbeat IPC: 0.688126 cumulative IPC: 0.688473 (Simulation time: 2 hr 16 min 18 sec) 
Heartbeat CPU 1 instructions: 360000002 cycles: 453425219 heartbeat IPC: 0.515701 cumulative IPC: 0.697137 (Simulation time: 2 hr 18 min 27 sec) 
Heartbeat CPU 2 instructions: 200000003 cycles: 454016080 heartbeat IPC: 0.362959 cumulative IPC: 0.322435 (Simulation time: 2 hr 18 min 38 sec) 
Heartbeat CPU 3 instructions: 360000000 cycles: 461076200 heartbeat IPC: 0.688269 cumulative IPC: 0.688467 (Simulation time: 2 hr 20 min 47 sec) 
Heartbeat CPU 1 instructions: 370000002 cycles: 472848945 heartbeat IPC: 0.514834 cumulative IPC: 0.689389 (Simulation time: 2 hr 24 min 26 sec) 
Heartbeat CPU 3 instructions: 370000001 cycles: 475576719 heartbeat IPC: 0.689631 cumulative IPC: 0.688503 (Simulation time: 2 hr 25 min 15 sec) 
Heartbeat CPU 2 instructions: 210000003 cycles: 481816347 heartbeat IPC: 0.359709 cumulative IPC: 0.324659 (Simulation time: 2 hr 27 min 13 sec) 
Heartbeat CPU 0 instructions: 80000002 cycles: 483274878 heartbeat IPC: 0.0572304 cumulative IPC: 0.0641772 (Simulation time: 2 hr 27 min 39 sec) 
Heartbeat CPU 3 instructions: 380000001 cycles: 490096836 heartbeat IPC: 0.6887 cumulative IPC: 0.688509 (Simulation time: 2 hr 29 min 49 sec) 
Heartbeat CPU 1 instructions: 380000001 cycles: 492015256 heartbeat IPC: 0.521749 cumulative IPC: 0.682642 (Simulation time: 2 hr 30 min 25 sec) 
Heartbeat CPU 3 instructions: 390000002 cycles: 504523012 heartbeat IPC: 0.693184 cumulative IPC: 0.688647 (Simulation time: 2 hr 34 min 9 sec) 
Heartbeat CPU 2 instructions: 220000000 cycles: 509676707 heartbeat IPC: 0.358933 cumulative IPC: 0.326592 (Simulation time: 2 hr 35 min 22 sec) 
Heartbeat CPU 1 instructions: 390000003 cycles: 511375537 heartbeat IPC: 0.516522 cumulative IPC: 0.676152 (Simulation time: 2 hr 35 min 54 sec) 
Heartbeat CPU 3 instructions: 400000000 cycles: 518805373 heartbeat IPC: 0.700164 cumulative IPC: 0.688974 (Simulation time: 2 hr 38 min 7 sec) 
Heartbeat CPU 1 instructions: 400000002 cycles: 530517173 heartbeat IPC: 0.522421 cumulative IPC: 0.670435 (Simulation time: 2 hr 41 min 45 sec) 
Heartbeat CPU 3 instructions: 410000000 cycles: 533199876 heartbeat IPC: 0.69471 cumulative IPC: 0.689134 (Simulation time: 2 hr 42 min 29 sec) 
Heartbeat CPU 2 instructions: 230000003 cycles: 537753303 heartbeat IPC: 0.356169 cumulative IPC: 0.328183 (Simulation time: 2 hr 43 min 50 sec) 
Heartbeat CPU 3 instructions: 420000003 cycles: 547617286 heartbeat IPC: 0.693606 cumulative IPC: 0.689255 (Simulation time: 2 hr 46 min 48 sec) 
Heartbeat CPU 1 instructions: 410000003 cycles: 550082497 heartbeat IPC: 0.511108 cumulative IPC: 0.6646 (Simulation time: 2 hr 47 min 30 sec) 
Heartbeat CPU 3 instructions: 430000000 cycles: 561944287 heartbeat IPC: 0.697983 cumulative IPC: 0.689484 (Simulation time: 2 hr 51 min 9 sec) 
Heartbeat CPU 1 instructions: 420000003 cycles: 565235467 heartbeat IPC: 0.659937 cumulative IPC: 0.664471 (Simulation time: 2 hr 52 min 5 sec) 
Heartbeat CPU 2 instructions: 240000000 cycles: 575583547 heartbeat IPC: 0.264339 cumulative IPC: 0.323869 (Simulation time: 2 hr 55 min 0 sec) 
Heartbeat CPU 3 instructions: 440000000 cycles: 576322674 heartbeat IPC: 0.695488 cumulative IPC: 0.689638 (Simulation time: 2 hr 55 min 13 sec) 
Heartbeat CPU 1 instructions: 430000000 cycles: 576608207 heartbeat IPC: 0.879295 cumulative IPC: 0.668828 (Simulation time: 2 hr 55 min 18 sec) 
Heartbeat CPU 1 instructions: 440000000 cycles: 587798700 heartbeat IPC: 0.893616 cumulative IPC: 0.673226 (Simulation time: 2 hr 58 min 31 sec) 
Heartbeat CPU 3 instructions: 450000000 cycles: 590514044 heartbeat IPC: 0.704654 cumulative IPC: 0.690009 (Simulation time: 2 hr 59 min 18 sec) 
Heartbeat CPU 1 instructions: 450000003 cycles: 599113653 heartbeat IPC: 0.883786 cumulative IPC: 0.67731 (Simulation time: 3 hr 1 min 48 sec) 
Heartbeat CPU 3 instructions: 460000001 cycles: 604894393 heartbeat IPC: 0.695394 cumulative IPC: 0.69014 (Simulation time: 3 hr 3 min 29 sec) 
Heartbeat CPU 1 instructions: 460000000 cycles: 610253415 heartbeat IPC: 0.897685 cumulative IPC: 0.68144 (Simulation time: 3 hr 5 min 2 sec) 
Heartbeat CPU 3 instructions: 470000000 cycles: 619336934 heartbeat IPC: 0.692399 cumulative IPC: 0.690194 (Simulation time: 3 hr 7 min 40 sec) 
Heartbeat CPU 1 instructions: 470000000 cycles: 621454228 heartbeat IPC: 0.892792 cumulative IPC: 0.685349 (Simulation time: 3 hr 8 min 16 sec) 
Heartbeat CPU 1 instructions: 480000002 cycles: 632569605 heartbeat IPC: 0.899655 cumulative IPC: 0.689211 (Simulation time: 3 hr 11 min 26 sec) 
Heartbeat CPU 3 instructions: 480000001 cycles: 633646302 heartbeat IPC: 0.698843 cumulative IPC: 0.690395 (Simulation time: 3 hr 11 min 45 sec) 
Heartbeat CPU 1 instructions: 490000002 cycles: 644321224 heartbeat IPC: 0.850947 cumulative IPC: 0.692235 (Simulation time: 3 hr 14 min 47 sec) 
*** Reached end of trace for Core: 2 Repeating trace: ./traces/ligra/ligra_BFSCC.com-lj.ungraph.gcc_6.3.0_O3.drop_18750M.length_250M.champsimtrace.xz
Heartbeat CPU 2 instructions: 250000000 cycles: 645916433 heartbeat IPC: 0.142181 cumulative IPC: 0.303588 (Simulation time: 3 hr 15 min 15 sec) 
Heartbeat CPU 3 instructions: 490000003 cycles: 647916847 heartbeat IPC: 0.700744 cumulative IPC: 0.690628 (Simulation time: 3 hr 15 min 44 sec) 
Heartbeat CPU 0 instructions: 90000003 cycles: 656803675 heartbeat IPC: 0.0576273 cumulative IPC: 0.062404 (Simulation time: 3 hr 17 min 57 sec) 
*** Reached end of trace for Core: 3 Repeating trace: ./traces/ligra/ligra_BellmanFord.com-lj.ungraph.gcc_6.3.0_O3.drop_14000M.length_250M.champsimtrace.xz
Heartbeat CPU 3 instructions: 500000001 cycles: 662195252 heartbeat IPC: 0.700358 cumulative IPC: 0.690843 (Simulation time: 3 hr 19 min 3 sec) 
Finished CPU 2 instructions: 200000003 cycles: 655663274 cumulative IPC: 0.305035 (Simulation time: 3 hr 20 min 56 sec) 
Heartbeat CPU 1 instructions: 500000002 cycles: 674024204 heartbeat IPC: 0.336667 cumulative IPC: 0.67619 (Simulation time: 3 hr 21 min 26 sec) 
Heartbeat CPU 2 instructions: 260000000 cycles: 675221336 heartbeat IPC: 0.34124 cumulative IPC: 0.305261 (Simulation time: 3 hr 21 min 41 sec) 
Heartbeat CPU 3 instructions: 510000003 cycles: 676507735 heartbeat IPC: 0.698691 cumulative IPC: 0.691013 (Simulation time: 3 hr 21 min 56 sec) 
Heartbeat CPU 3 instructions: 520000001 cycles: 690725293 heartbeat IPC: 0.703356 cumulative IPC: 0.691273 (Simulation time: 3 hr 24 min 46 sec) 
Heartbeat CPU 2 instructions: 270000003 cycles: 703798491 heartbeat IPC: 0.34993 cumulative IPC: 0.307117 (Simulation time: 3 hr 27 min 15 sec) 
Heartbeat CPU 3 instructions: 530000000 cycles: 705127288 heartbeat IPC: 0.694348 cumulative IPC: 0.691338 (Simulation time: 3 hr 27 min 32 sec) 
Heartbeat CPU 1 instructions: 510000001 cycles: 714528838 heartbeat IPC: 0.246885 cumulative IPC: 0.651303 (Simulation time: 3 hr 29 min 53 sec) 
Heartbeat CPU 3 instructions: 540000001 cycles: 719547197 heartbeat IPC: 0.693486 cumulative IPC: 0.691382 (Simulation time: 3 hr 31 min 9 sec) 
Heartbeat CPU 1 instructions: 520000000 cycles: 728663776 heartbeat IPC: 0.707467 cumulative IPC: 0.652416 (Simulation time: 3 hr 33 min 23 sec) 
Heartbeat CPU 2 instructions: 280000003 cycles: 733139913 heartbeat IPC: 0.340815 cumulative IPC: 0.308495 (Simulation time: 3 hr 34 min 28 sec) 
Heartbeat CPU 3 instructions: 550000000 cycles: 733971604 heartbeat IPC: 0.693269 cumulative IPC: 0.69142 (Simulation time: 3 hr 34 min 40 sec) 
Heartbeat CPU 1 instructions: 530000000 cycles: 741825307 heartbeat IPC: 0.75979 cumulative IPC: 0.654363 (Simulation time: 3 hr 36 min 37 sec) 
Heartbeat CPU 3 instructions: 560000000 cycles: 748436356 heartbeat IPC: 0.691336 cumulative IPC: 0.691418 (Simulation time: 3 hr 38 min 20 sec) 
Heartbeat CPU 1 instructions: 540000002 cycles: 755221665 heartbeat IPC: 0.746472 cumulative IPC: 0.656032 (Simulation time: 3 hr 40 min 2 sec) 
Heartbeat CPU 2 instructions: 290000000 cycles: 761533746 heartbeat IPC: 0.352189 cumulative IPC: 0.310159 (Simulation time: 3 hr 41 min 40 sec) 
Heartbeat CPU 3 instructions: 570000000 cycles: 762869864 heartbeat IPC: 0.692832 cumulative IPC: 0.691445 (Simulation time: 3 hr 42 min 1 sec) 
Heartbeat CPU 1 instructions: 550000000 cycles: 768028421 heartbeat IPC: 0.780838 cumulative IPC: 0.658157 (Simulation time: 3 hr 43 min 20 sec) 
Heartbeat CPU 3 instructions: 580000001 cycles: 777311774 heartbeat IPC: 0.692429 cumulative IPC: 0.691464 (Simulation time: 3 hr 45 min 42 sec) 
Heartbeat CPU 1 instructions: 560000003 cycles: 781448648 heartbeat IPC: 0.745144 cumulative IPC: 0.659681 (Simulation time: 3 hr 46 min 45 sec) 
Heartbeat CPU 2 instructions: 300000000 cycles: 790461472 heartbeat IPC: 0.345689 cumulative IPC: 0.311486 (Simulation time: 3 hr 48 min 57 sec) 
Heartbeat CPU 3 instructions: 590000000 cycles: 791725618 heartbeat IPC: 0.693777 cumulative IPC: 0.691507 (Simulation time: 3 hr 49 min 16 sec) 
Heartbeat CPU 1 instructions: 570000000 cycles: 794651529 heartbeat IPC: 0.75741 cumulative IPC: 0.661338 (Simulation time: 3 hr 50 min 1 sec) 
Heartbeat CPU 3 instructions: 600000000 cycles: 806246005 heartbeat IPC: 0.688687 cumulative IPC: 0.691455 (Simulation time: 3 hr 52 min 55 sec) 
Heartbeat CPU 1 instructions: 580000002 cycles: 808077671 heartbeat IPC: 0.744816 cumulative IPC: 0.662753 (Simulation time: 3 hr 53 min 17 sec) 
Heartbeat CPU 2 instructions: 310000002 cycles: 819093371 heartbeat IPC: 0.349261 cumulative IPC: 0.312832 (Simulation time: 3 hr 55 min 58 sec) 
Heartbeat CPU 3 instructions: 610000001 cycles: 820771938 heartbeat IPC: 0.688424 cumulative IPC: 0.6914 (Simulation time: 3 hr 56 min 22 sec) 
Heartbeat CPU 1 instructions: 590000002 cycles: 821242811 heartbeat IPC: 0.759582 cumulative IPC: 0.664335 (Simulation time: 3 hr 56 min 29 sec) 
Heartbeat CPU 0 instructions: 100000000 cycles: 825052372 heartbeat IPC: 0.0594358 cumulative IPC: 0.0617869 (Simulation time: 3 hr 57 min 26 sec) 
Heartbeat CPU 1 instructions: 600000000 cycles: 834626151 heartbeat IPC: 0.747198 cumulative IPC: 0.66569 (Simulation time: 3 hr 59 min 44 sec) 
Heartbeat CPU 3 instructions: 620000000 cycles: 835269276 heartbeat IPC: 0.689782 cumulative IPC: 0.691372 (Simulation time: 3 hr 59 min 53 sec) 
Heartbeat CPU 1 instructions: 610000002 cycles: 847797741 heartbeat IPC: 0.75921 cumulative IPC: 0.66717 (Simulation time: 4 hr 2 min 53 sec) 
Heartbeat CPU 2 instructions: 320000000 cycles: 847856053 heartbeat IPC: 0.347673 cumulative IPC: 0.314037 (Simulation time: 4 hr 2 min 54 sec) 
Heartbeat CPU 3 instructions: 630000002 cycles: 849784448 heartbeat IPC: 0.688934 cumulative IPC: 0.691329 (Simulation time: 4 hr 3 min 17 sec) 
Heartbeat CPU 1 instructions: 620000000 cycles: 861274923 heartbeat IPC: 0.741995 cumulative IPC: 0.668363 (Simulation time: 4 hr 5 min 45 sec) 
Heartbeat CPU 3 instructions: 640000003 cycles: 864213465 heartbeat IPC: 0.693048 cumulative IPC: 0.691359 (Simulation time: 4 hr 6 min 30 sec) 
Heartbeat CPU 1 instructions: 630000002 cycles: 874459757 heartbeat IPC: 0.758447 cumulative IPC: 0.669746 (Simulation time: 4 hr 9 min 0 sec) 
Heartbeat CPU 2 instructions: 330000000 cycles: 876683943 heartbeat IPC: 0.346886 cumulative IPC: 0.315137 (Simulation time: 4 hr 9 min 32 sec) 
Heartbeat CPU 3 instructions: 650000000 cycles: 878496822 heartbeat IPC: 0.700115 cumulative IPC: 0.691504 (Simulation time: 4 hr 9 min 57 sec) 
Heartbeat CPU 1 instructions: 640000002 cycles: 887871295 heartbeat IPC: 0.745627 cumulative IPC: 0.670913 (Simulation time: 4 hr 12 min 11 sec) 
Heartbeat CPU 3 instructions: 660000000 cycles: 892889245 heartbeat IPC: 0.69481 cumulative IPC: 0.691558 (Simulation time: 4 hr 13 min 24 sec) 
Heartbeat CPU 1 instructions: 650000000 cycles: 901301130 heartbeat IPC: 0.744611 cumulative IPC: 0.672031 (Simulation time: 4 hr 15 min 27 sec) 
Heartbeat CPU 2 instructions: 340000001 cycles: 906117307 heartbeat IPC: 0.339751 cumulative IPC: 0.31595 (Simulation time: 4 hr 16 min 40 sec) 
Heartbeat CPU 3 instructions: 670000000 cycles: 907305082 heartbeat IPC: 0.693682 cumulative IPC: 0.691592 (Simulation time: 4 hr 16 min 58 sec) 
Heartbeat CPU 1 instructions: 660000000 cycles: 914490616 heartbeat IPC: 0.75818 cumulative IPC: 0.673295 (Simulation time: 4 hr 18 min 49 sec) 
Heartbeat CPU 3 instructions: 680000000 cycles: 921638579 heartbeat IPC: 0.697666 cumulative IPC: 0.691688 (Simulation time: 4 hr 20 min 40 sec) 
Heartbeat CPU 1 instructions: 670000001 cycles: 928081067 heartbeat IPC: 0.735811 cumulative IPC: 0.674227 (Simulation time: 4 hr 22 min 16 sec) 
Heartbeat CPU 2 instructions: 350000002 cycles: 935303110 heartbeat IPC: 0.342632 cumulative IPC: 0.316797 (Simulation time: 4 hr 24 min 1 sec) 
Heartbeat CPU 3 instructions: 690000001 cycles: 936017462 heartbeat IPC: 0.695464 cumulative IPC: 0.691747 (Simulation time: 4 hr 24 min 11 sec) 
Heartbeat CPU 1 instructions: 680000003 cycles: 942726272 heartbeat IPC: 0.682817 cumulative IPC: 0.674363 (Simulation time: 4 hr 25 min 49 sec) 
Heartbeat CPU 3 instructions: 700000001 cycles: 950207487 heartbeat IPC: 0.70472 cumulative IPC: 0.691944 (Simulation time: 4 hr 27 min 30 sec) 
Heartbeat CPU 1 instructions: 690000000 cycles: 959731349 heartbeat IPC: 0.588059 cumulative IPC: 0.672808 (Simulation time: 4 hr 29 min 29 sec) 
Heartbeat CPU 2 instructions: 360000001 cycles: 963510381 heartbeat IPC: 0.354518 cumulative IPC: 0.31792 (Simulation time: 4 hr 30 min 21 sec) 
Heartbeat CPU 3 instructions: 710000002 cycles: 964582397 heartbeat IPC: 0.695657 cumulative IPC: 0.692001 (Simulation time: 4 hr 30 min 36 sec) 
Heartbeat CPU 1 instructions: 700000001 cycles: 978353109 heartbeat IPC: 0.537006 cumulative IPC: 0.67018 (Simulation time: 4 hr 33 min 39 sec) 
Heartbeat CPU 3 instructions: 720000000 cycles: 979025792 heartbeat IPC: 0.692358 cumulative IPC: 0.692006 (Simulation time: 4 hr 33 min 47 sec) 
Heartbeat CPU 2 instructions: 370000003 cycles: 992197076 heartbeat IPC: 0.348594 cumulative IPC: 0.318821 (Simulation time: 4 hr 36 min 37 sec) 
Heartbeat CPU 3 instructions: 730000002 cycles: 993333555 heartbeat IPC: 0.698921 cumulative IPC: 0.692107 (Simulation time: 4 hr 36 min 52 sec) 
Heartbeat CPU 0 instructions: 110000000 cycles: 994837352 heartbeat IPC: 0.058898 cumulative IPC: 0.0612859 (Simulation time: 4 hr 37 min 9 sec) 
Heartbeat CPU 1 instructions: 710000002 cycles: 1000675733 heartbeat IPC: 0.447976 cumulative IPC: 0.665144 (Simulation time: 4 hr 38 min 28 sec) 
Heartbeat CPU 3 instructions: 740000000 cycles: 1007606399 heartbeat IPC: 0.700631 cumulative IPC: 0.69223 (Simulation time: 4 hr 40 min 0 sec) 
Heartbeat CPU 2 instructions: 380000002 cycles: 1020953644 heartbeat IPC: 0.347747 cumulative IPC: 0.319649 (Simulation time: 4 hr 42 min 50 sec) 
*** Reached end of trace for Core: 3 Repeating trace: ./traces/ligra/ligra_BellmanFord.com-lj.ungraph.gcc_6.3.0_O3.drop_14000M.length_250M.champsimtrace.xz
Heartbeat CPU 3 instructions: 750000002 cycles: 1021880422 heartbeat IPC: 0.700574 cumulative IPC: 0.692348 (Simulation time: 4 hr 43 min 2 sec) 
Heartbeat CPU 1 instructions: 720000000 cycles: 1027747809 heartbeat IPC: 0.369384 cumulative IPC: 0.657232 (Simulation time: 4 hr 44 min 14 sec) 
Heartbeat CPU 3 instructions: 760000000 cycles: 1036197528 heartbeat IPC: 0.698465 cumulative IPC: 0.692434 (Simulation time: 4 hr 45 min 56 sec) 
Heartbeat CPU 2 instructions: 390000000 cycles: 1049946448 heartbeat IPC: 0.344913 cumulative IPC: 0.320357 (Simulation time: 4 hr 48 min 43 sec) 
Heartbeat CPU 3 instructions: 770000000 cycles: 1050415657 heartbeat IPC: 0.703327 cumulative IPC: 0.692584 (Simulation time: 4 hr 48 min 49 sec) 
Heartbeat CPU 1 instructions: 730000003 cycles: 1063663997 heartbeat IPC: 0.278426 cumulative IPC: 0.644248 (Simulation time: 4 hr 51 min 32 sec) 
Heartbeat CPU 3 instructions: 780000001 cycles: 1064823616 heartbeat IPC: 0.694061 cumulative IPC: 0.692604 (Simulation time: 4 hr 51 min 47 sec) 
Heartbeat CPU 3 instructions: 790000002 cycles: 1079236271 heartbeat IPC: 0.693835 cumulative IPC: 0.692621 (Simulation time: 4 hr 54 min 51 sec) 
Heartbeat CPU 2 instructions: 400000002 cycles: 1081501992 heartbeat IPC: 0.316902 cumulative IPC: 0.320255 (Simulation time: 4 hr 55 min 17 sec) 
Heartbeat CPU 3 instructions: 800000002 cycles: 1093651601 heartbeat IPC: 0.693706 cumulative IPC: 0.692635 (Simulation time: 4 hr 57 min 52 sec) 
Heartbeat CPU 1 instructions: 740000003 cycles: 1097244442 heartbeat IPC: 0.297792 cumulative IPC: 0.633489 (Simulation time: 4 hr 58 min 40 sec) 
Heartbeat CPU 3 instructions: 810000001 cycles: 1108120081 heartbeat IPC: 0.691158 cumulative IPC: 0.692616 (Simulation time: 5 hr 1 min 6 sec) 
Heartbeat CPU 2 instructions: 410000000 cycles: 1118048834 heartbeat IPC: 0.273621 cumulative IPC: 0.318709 (Simulation time: 5 hr 3 min 19 sec) 
Heartbeat CPU 3 instructions: 820000001 cycles: 1122551626 heartbeat IPC: 0.692927 cumulative IPC: 0.69262 (Simulation time: 5 hr 4 min 24 sec) 
Heartbeat CPU 1 instructions: 750000002 cycles: 1129948633 heartbeat IPC: 0.305771 cumulative IPC: 0.62387 (Simulation time: 5 hr 6 min 8 sec) 
Heartbeat CPU 3 instructions: 830000000 cycles: 1136992382 heartbeat IPC: 0.692484 cumulative IPC: 0.692618 (Simulation time: 5 hr 7 min 45 sec) 
Heartbeat CPU 0 instructions: 120000002 cycles: 1144218361 heartbeat IPC: 0.0669429 cumulative IPC: 0.0620348 (Simulation time: 5 hr 9 min 18 sec) 
Heartbeat CPU 2 instructions: 420000000 cycles: 1147533759 heartbeat IPC: 0.339156 cumulative IPC: 0.319241 (Simulation time: 5 hr 10 min 1 sec) 
Heartbeat CPU 3 instructions: 840000001 cycles: 1151403720 heartbeat IPC: 0.693898 cumulative IPC: 0.692634 (Simulation time: 5 hr 10 min 55 sec) 
Heartbeat CPU 1 instructions: 760000000 cycles: 1163465346 heartbeat IPC: 0.298359 cumulative IPC: 0.614363 (Simulation time: 5 hr 13 min 42 sec) 
Heartbeat CPU 3 instructions: 850000000 cycles: 1165927930 heartbeat IPC: 0.688506 cumulative IPC: 0.692582 (Simulation time: 5 hr 14 min 15 sec) 
Heartbeat CPU 2 instructions: 430000001 cycles: 1177242167 heartbeat IPC: 0.336605 cumulative IPC: 0.319685 (Simulation time: 5 hr 16 min 50 sec) 
Heartbeat CPU 3 instructions: 860000002 cycles: 1180451616 heartbeat IPC: 0.688531 cumulative IPC: 0.692532 (Simulation time: 5 hr 17 min 33 sec) 
Heartbeat CPU 3 instructions: 870000001 cycles: 1194956566 heartbeat IPC: 0.68942 cumulative IPC: 0.692493 (Simulation time: 5 hr 20 min 48 sec) 
Heartbeat CPU 1 instructions: 770000000 cycles: 1195013842 heartbeat IPC: 0.316972 cumulative IPC: 0.606407 (Simulation time: 5 hr 20 min 49 sec) 
Heartbeat CPU 2 instructions: 440000000 cycles: 1206651177 heartbeat IPC: 0.340032 cumulative IPC: 0.320188 (Simulation time: 5 hr 23 min 36 sec) 
Heartbeat CPU 3 instructions: 880000000 cycles: 1209479260 heartbeat IPC: 0.688577 cumulative IPC: 0.692446 (Simulation time: 5 hr 24 min 14 sec) 
Heartbeat CPU 3 instructions: 890000000 cycles: 1223899662 heartbeat IPC: 0.693462 cumulative IPC: 0.692458 (Simulation time: 5 hr 28 min 4 sec) 
Heartbeat CPU 2 instructions: 450000001 cycles: 1234313453 heartbeat IPC: 0.361503 cumulative IPC: 0.321126 (Simulation time: 5 hr 31 min 3 sec) 
Heartbeat CPU 3 instructions: 900000000 cycles: 1238175390 heartbeat IPC: 0.70049 cumulative IPC: 0.692551 (Simulation time: 5 hr 32 min 9 sec) 
Heartbeat CPU 1 instructions: 780000002 cycles: 1238922110 heartbeat IPC: 0.227748 cumulative IPC: 0.592813 (Simulation time: 5 hr 32 min 23 sec) 
Heartbeat CPU 3 instructions: 910000001 cycles: 1252565376 heartbeat IPC: 0.694928 cumulative IPC: 0.692579 (Simulation time: 5 hr 36 min 16 sec) 
Heartbeat CPU 2 instructions: 460000003 cycles: 1261282701 heartbeat IPC: 0.370793 cumulative IPC: 0.322201 (Simulation time: 5 hr 38 min 44 sec) 
Heartbeat CPU 3 instructions: 920000001 cycles: 1266980979 heartbeat IPC: 0.693693 cumulative IPC: 0.692592 (Simulation time: 5 hr 40 min 18 sec) 
Heartbeat CPU 3 instructions: 930000000 cycles: 1281305533 heartbeat IPC: 0.698102 cumulative IPC: 0.692654 (Simulation time: 5 hr 44 min 17 sec) 
Heartbeat CPU 1 instructions: 790000001 cycles: 1287782148 heartbeat IPC: 0.204666 cumulative IPC: 0.577903 (Simulation time: 5 hr 46 min 8 sec) 
Heartbeat CPU 2 instructions: 470000003 cycles: 1288138920 heartbeat IPC: 0.372353 cumulative IPC: 0.32326 (Simulation time: 5 hr 46 min 14 sec) 
Heartbeat CPU 3 instructions: 940000002 cycles: 1295681574 heartbeat IPC: 0.695602 cumulative IPC: 0.692687 (Simulation time: 5 hr 48 min 20 sec) 
Heartbeat CPU 3 instructions: 950000000 cycles: 1309870505 heartbeat IPC: 0.704775 cumulative IPC: 0.69282 (Simulation time: 5 hr 52 min 13 sec) 
Heartbeat CPU 2 instructions: 480000001 cycles: 1315258106 heartbeat IPC: 0.368743 cumulative IPC: 0.324209 (Simulation time: 5 hr 53 min 45 sec) 
Heartbeat CPU 3 instructions: 960000003 cycles: 1324253933 heartbeat IPC: 0.695245 cumulative IPC: 0.692847 (Simulation time: 5 hr 56 min 16 sec) 
Heartbeat CPU 0 instructions: 130000000 cycles: 1327890198 heartbeat IPC: 0.0544449 cumulative IPC: 0.0609723 (Simulation time: 5 hr 57 min 19 sec) 
Heartbeat CPU 1 instructions: 800000003 cycles: 1333346287 heartbeat IPC: 0.219471 cumulative IPC: 0.565507 (Simulation time: 5 hr 58 min 45 sec) 
Heartbeat CPU 3 instructions: 970000001 cycles: 1338692194 heartbeat IPC: 0.692604 cumulative IPC: 0.692844 (Simulation time: 5 hr 59 min 49 sec) 
Heartbeat CPU 2 instructions: 490000000 cycles: 1352156144 heartbeat IPC: 0.271017 cumulative IPC: 0.32274 (Simulation time: 6 hr 2 min 39 sec) 
Heartbeat CPU 3 instructions: 980000003 cycles: 1352996309 heartbeat IPC: 0.6991 cumulative IPC: 0.692911 (Simulation time: 6 hr 2 min 51 sec) 
Heartbeat CPU 1 instructions: 810000002 cycles: 1359991561 heartbeat IPC: 0.375301 cumulative IPC: 0.561737 (Simulation time: 6 hr 4 min 26 sec) 
Heartbeat CPU 3 instructions: 990000000 cycles: 1367269125 heartbeat IPC: 0.700632 cumulative IPC: 0.692992 (Simulation time: 6 hr 6 min 0 sec) 
*** Reached end of trace for Core: 3 Repeating trace: ./traces/ligra/ligra_BellmanFord.com-lj.ungraph.gcc_6.3.0_O3.drop_14000M.length_250M.champsimtrace.xz
Heartbeat CPU 3 instructions: 1000000000 cycles: 1381539722 heartbeat IPC: 0.700742 cumulative IPC: 0.693073 (Simulation time: 6 hr 9 min 20 sec) 
Heartbeat CPU 1 instructions: 820000001 cycles: 1384777362 heartbeat IPC: 0.403457 cumulative IPC: 0.558871 (Simulation time: 6 hr 10 min 6 sec) 
Heartbeat CPU 3 instructions: 1010000001 cycles: 1395856644 heartbeat IPC: 0.698474 cumulative IPC: 0.693129 (Simulation time: 6 hr 12 min 40 sec) 
Heartbeat CPU 1 instructions: 830000001 cycles: 1409458452 heartbeat IPC: 0.405169 cumulative IPC: 0.556149 (Simulation time: 6 hr 15 min 40 sec) 
Heartbeat CPU 3 instructions: 1020000003 cycles: 1410081469 heartbeat IPC: 0.702996 cumulative IPC: 0.69323 (Simulation time: 6 hr 15 min 47 sec) 
*** Reached end of trace for Core: 2 Repeating trace: ./traces/ligra/ligra_BFSCC.com-lj.ungraph.gcc_6.3.0_O3.drop_18750M.length_250M.champsimtrace.xz
Heartbeat CPU 2 instructions: 500000000 cycles: 1422242412 heartbeat IPC: 0.142681 cumulative IPC: 0.313768 (Simulation time: 6 hr 18 min 28 sec) 
Heartbeat CPU 3 instructions: 1030000002 cycles: 1424486526 heartbeat IPC: 0.694201 cumulative IPC: 0.69324 (Simulation time: 6 hr 18 min 53 sec) 
Heartbeat CPU 1 instructions: 840000001 cycles: 1436217320 heartbeat IPC: 0.373708 cumulative IPC: 0.552712 (Simulation time: 6 hr 21 min 22 sec) 
Heartbeat CPU 3 instructions: 1040000003 cycles: 1438900124 heartbeat IPC: 0.693789 cumulative IPC: 0.693246 (Simulation time: 6 hr 21 min 58 sec) 
Heartbeat CPU 2 instructions: 510000001 cycles: 1450823422 heartbeat IPC: 0.349883 cumulative IPC: 0.314487 (Simulation time: 6 hr 24 min 33 sec) 
Heartbeat CPU 3 instructions: 1050000003 cycles: 1453319168 heartbeat IPC: 0.693527 cumulative IPC: 0.693248 (Simulation time: 6 hr 25 min 4 sec) 
Heartbeat CPU 1 instructions: 850000000 cycles: 1464718364 heartbeat IPC: 0.350864 cumulative IPC: 0.548742 (Simulation time: 6 hr 27 min 22 sec) 
Heartbeat CPU 3 instructions: 1060000002 cycles: 1467780941 heartbeat IPC: 0.691478 cumulative IPC: 0.693231 (Simulation time: 6 hr 28 min 3 sec) 
Heartbeat CPU 0 instructions: 140000001 cycles: 1477435735 heartbeat IPC: 0.0668693 cumulative IPC: 0.0615757 (Simulation time: 6 hr 30 min 12 sec) 
Heartbeat CPU 2 instructions: 520000000 cycles: 1478360989 heartbeat IPC: 0.36314 cumulative IPC: 0.315403 (Simulation time: 6 hr 30 min 23 sec) 
Heartbeat CPU 3 instructions: 1070000002 cycles: 1482208545 heartbeat IPC: 0.693116 cumulative IPC: 0.69323 (Simulation time: 6 hr 31 min 15 sec) 
Heartbeat CPU 1 instructions: 860000000 cycles: 1493763587 heartbeat IPC: 0.344291 cumulative IPC: 0.544724 (Simulation time: 6 hr 33 min 45 sec) 
Heartbeat CPU 3 instructions: 1080000001 cycles: 1496645839 heartbeat IPC: 0.69265 cumulative IPC: 0.693224 (Simulation time: 6 hr 34 min 23 sec) 
Heartbeat CPU 2 instructions: 530000003 cycles: 1505864709 heartbeat IPC: 0.363587 cumulative IPC: 0.316292 (Simulation time: 6 hr 36 min 24 sec) 
Heartbeat CPU 3 instructions: 1090000000 cycles: 1511055932 heartbeat IPC: 0.693958 cumulative IPC: 0.693231 (Simulation time: 6 hr 37 min 34 sec) 
Heartbeat CPU 1 instructions: 870000002 cycles: 1523770371 heartbeat IPC: 0.333258 cumulative IPC: 0.540516 (Simulation time: 6 hr 40 min 18 sec) 
Heartbeat CPU 3 instructions: 1100000000 cycles: 1525586094 heartbeat IPC: 0.688224 cumulative IPC: 0.693183 (Simulation time: 6 hr 40 min 42 sec) 
Heartbeat CPU 2 instructions: 540000003 cycles: 1533134316 heartbeat IPC: 0.366709 cumulative IPC: 0.317198 (Simulation time: 6 hr 42 min 23 sec) 
Heartbeat CPU 3 instructions: 1110000000 cycles: 1540112151 heartbeat IPC: 0.688418 cumulative IPC: 0.693138 (Simulation time: 6 hr 43 min 51 sec) 
Heartbeat CPU 1 instructions: 880000000 cycles: 1554609314 heartbeat IPC: 0.324265 cumulative IPC: 0.536182 (Simulation time: 6 hr 46 min 58 sec) 
Heartbeat CPU 3 instructions: 1120000000 cycles: 1554615542 heartbeat IPC: 0.689494 cumulative IPC: 0.693103 (Simulation time: 6 hr 46 min 58 sec) 
Heartbeat CPU 2 instructions: 550000000 cycles: 1560731402 heartbeat IPC: 0.362357 cumulative IPC: 0.318005 (Simulation time: 6 hr 48 min 19 sec) 
Heartbeat CPU 3 instructions: 1130000000 cycles: 1569132973 heartbeat IPC: 0.688827 cumulative IPC: 0.693063 (Simulation time: 6 hr 50 min 7 sec) 
Heartbeat CPU 3 instructions: 1140000001 cycles: 1583564038 heartbeat IPC: 0.69295 cumulative IPC: 0.693062 (Simulation time: 6 hr 53 min 7 sec) 
Heartbeat CPU 1 instructions: 890000000 cycles: 1585200450 heartbeat IPC: 0.326892 cumulative IPC: 0.532102 (Simulation time: 6 hr 53 min 28 sec) 
Heartbeat CPU 2 instructions: 560000003 cycles: 1588439667 heartbeat IPC: 0.360903 cumulative IPC: 0.318761 (Simulation time: 6 hr 54 min 7 sec) 
Heartbeat CPU 3 instructions: 1150000000 cycles: 1597838211 heartbeat IPC: 0.700566 cumulative IPC: 0.69313 (Simulation time: 6 hr 56 min 7 sec) 
Heartbeat CPU 3 instructions: 1160000000 cycles: 1612237410 heartbeat IPC: 0.694483 cumulative IPC: 0.693142 (Simulation time: 6 hr 58 min 44 sec) 
Heartbeat CPU 1 instructions: 900000001 cycles: 1616329172 heartbeat IPC: 0.321247 cumulative IPC: 0.528001 (Simulation time: 6 hr 59 min 34 sec) 
Heartbeat CPU 2 instructions: 570000001 cycles: 1616348931 heartbeat IPC: 0.358304 cumulative IPC: 0.319451 (Simulation time: 6 hr 59 min 35 sec) 
Heartbeat CPU 3 instructions: 1170000002 cycles: 1626658874 heartbeat IPC: 0.693411 cumulative IPC: 0.693145 (Simulation time: 7 hr 1 min 33 sec) 
Heartbeat CPU 0 instructions: 150000001 cycles: 1633193550 heartbeat IPC: 0.0642022 cumulative IPC: 0.0618286 (Simulation time: 7 hr 2 min 53 sec) 
Heartbeat CPU 3 instructions: 1180000000 cycles: 1640985726 heartbeat IPC: 0.69799 cumulative IPC: 0.693187 (Simulation time: 7 hr 4 min 21 sec) 
Heartbeat CPU 2 instructions: 580000001 cycles: 1644325295 heartbeat IPC: 0.357445 cumulative IPC: 0.320103 (Simulation time: 7 hr 5 min 0 sec) 
Heartbeat CPU 1 instructions: 910000002 cycles: 1646124943 heartbeat IPC: 0.335618 cumulative IPC: 0.524485 (Simulation time: 7 hr 5 min 24 sec) 
Heartbeat CPU 3 instructions: 1190000000 cycles: 1655368736 heartbeat IPC: 0.695265 cumulative IPC: 0.693205 (Simulation time: 7 hr 7 min 15 sec) 
Heartbeat CPU 3 instructions: 1200000001 cycles: 1669553616 heartbeat IPC: 0.704976 cumulative IPC: 0.693306 (Simulation time: 7 hr 10 min 13 sec) 
Heartbeat CPU 2 instructions: 590000000 cycles: 1672695114 heartbeat IPC: 0.352487 cumulative IPC: 0.320658 (Simulation time: 7 hr 10 min 48 sec) 
Heartbeat CPU 1 instructions: 920000001 cycles: 1676254671 heartbeat IPC: 0.331898 cumulative IPC: 0.520991 (Simulation time: 7 hr 11 min 33 sec) 
Heartbeat CPU 3 instructions: 1210000000 cycles: 1683929395 heartbeat IPC: 0.695614 cumulative IPC: 0.693326 (Simulation time: 7 hr 13 min 14 sec) 
Heartbeat CPU 3 instructions: 1220000000 cycles: 1698372783 heartbeat IPC: 0.692358 cumulative IPC: 0.693318 (Simulation time: 7 hr 16 min 7 sec) 
Heartbeat CPU 2 instructions: 600000002 cycles: 1700712049 heartbeat IPC: 0.356927 cumulative IPC: 0.321261 (Simulation time: 7 hr 16 min 32 sec) 
Heartbeat CPU 1 instructions: 930000002 cycles: 1706740738 heartbeat IPC: 0.328019 cumulative IPC: 0.517512 (Simulation time: 7 hr 17 min 49 sec) 
Heartbeat CPU 3 instructions: 1230000000 cycles: 1712676229 heartbeat IPC: 0.699132 cumulative IPC: 0.693367 (Simulation time: 7 hr 19 min 6 sec) 
Heartbeat CPU 3 instructions: 1240000002 cycles: 1726951426 heartbeat IPC: 0.700516 cumulative IPC: 0.693427 (Simulation time: 7 hr 22 min 12 sec) 
Heartbeat CPU 2 instructions: 610000003 cycles: 1728549320 heartbeat IPC: 0.359231 cumulative IPC: 0.321878 (Simulation time: 7 hr 22 min 33 sec) 
Heartbeat CPU 1 instructions: 940000000 cycles: 1736848931 heartbeat IPC: 0.332135 cumulative IPC: 0.514269 (Simulation time: 7 hr 24 min 17 sec) 
*** Reached end of trace for Core: 3 Repeating trace: ./traces/ligra/ligra_BellmanFord.com-lj.ungraph.gcc_6.3.0_O3.drop_14000M.length_250M.champsimtrace.xz
Heartbeat CPU 3 instructions: 1250000001 cycles: 1741228740 heartbeat IPC: 0.700412 cumulative IPC: 0.693484 (Simulation time: 7 hr 25 min 14 sec) 
Heartbeat CPU 3 instructions: 1260000002 cycles: 1755533090 heartbeat IPC: 0.699088 cumulative IPC: 0.69353 (Simulation time: 7 hr 28 min 14 sec) 
Heartbeat CPU 2 instructions: 620000003 cycles: 1758026617 heartbeat IPC: 0.339244 cumulative IPC: 0.322172 (Simulation time: 7 hr 28 min 44 sec) 
Heartbeat CPU 1 instructions: 950000001 cycles: 1766925204 heartbeat IPC: 0.332488 cumulative IPC: 0.511146 (Simulation time: 7 hr 30 min 23 sec) 
Heartbeat CPU 3 instructions: 1270000000 cycles: 1769751273 heartbeat IPC: 0.703325 cumulative IPC: 0.69361 (Simulation time: 7 hr 31 min 0 sec) 
Heartbeat CPU 3 instructions: 1280000000 cycles: 1784149644 heartbeat IPC: 0.694523 cumulative IPC: 0.693617 (Simulation time: 7 hr 33 min 58 sec) 
Heartbeat CPU 2 instructions: 630000002 cycles: 1785972192 heartbeat IPC: 0.357838 cumulative IPC: 0.322735 (Simulation time: 7 hr 34 min 20 sec) 
Heartbeat CPU 0 instructions: 160000000 cycles: 1790406714 heartbeat IPC: 0.0636079 cumulative IPC: 0.0619862 (Simulation time: 7 hr 35 min 16 sec) 
Heartbeat CPU 1 instructions: 960000001 cycles: 1797411942 heartbeat IPC: 0.328011 cumulative IPC: 0.508013 (Simulation time: 7 hr 36 min 34 sec) 
Heartbeat CPU 3 instructions: 1290000000 cycles: 1798561567 heartbeat IPC: 0.69387 cumulative IPC: 0.693619 (Simulation time: 7 hr 36 min 49 sec) 
Heartbeat CPU 3 instructions: 1300000000 cycles: 1812983811 heartbeat IPC: 0.693373 cumulative IPC: 0.693617 (Simulation time: 7 hr 39 min 40 sec) 
Heartbeat CPU 2 instructions: 640000000 cycles: 1815040705 heartbeat IPC: 0.344015 cumulative IPC: 0.323079 (Simulation time: 7 hr 40 min 3 sec) 
Heartbeat CPU 3 instructions: 1310000003 cycles: 1827447110 heartbeat IPC: 0.691405 cumulative IPC: 0.6936 (Simulation time: 7 hr 42 min 19 sec) 
Heartbeat CPU 1 instructions: 970000002 cycles: 1827629866 heartbeat IPC: 0.330929 cumulative IPC: 0.505059 (Simulation time: 7 hr 42 min 21 sec) 
Heartbeat CPU 3 instructions: 1320000000 cycles: 1841879329 heartbeat IPC: 0.692894 cumulative IPC: 0.693594 (Simulation time: 7 hr 45 min 7 sec) 
Heartbeat CPU 2 instructions: 650000002 cycles: 1846456753 heartbeat IPC: 0.318309 cumulative IPC: 0.322997 (Simulation time: 7 hr 46 min 8 sec) 
Heartbeat CPU 1 instructions: 980000000 cycles: 1853625683 heartbeat IPC: 0.384677 cumulative IPC: 0.503356 (Simulation time: 7 hr 47 min 39 sec) 
Heartbeat CPU 3 instructions: 1330000000 cycles: 1856322544 heartbeat IPC: 0.692367 cumulative IPC: 0.693585 (Simulation time: 7 hr 48 min 12 sec) 
Heartbeat CPU 3 instructions: 1340000001 cycles: 1870730362 heartbeat IPC: 0.694068 cumulative IPC: 0.693588 (Simulation time: 7 hr 51 min 26 sec) 
Heartbeat CPU 1 instructions: 990000000 cycles: 1878823395 heartbeat IPC: 0.396861 cumulative IPC: 0.501916 (Simulation time: 7 hr 53 min 8 sec) 
Heartbeat CPU 2 instructions: 660000000 cycles: 1881712537 heartbeat IPC: 0.283641 cumulative IPC: 0.322253 (Simulation time: 7 hr 53 min 42 sec) 
Heartbeat CPU 3 instructions: 1350000000 cycles: 1885258768 heartbeat IPC: 0.688307 cumulative IPC: 0.693547 (Simulation time: 7 hr 54 min 30 sec) 
Heartbeat CPU 3 instructions: 1360000001 cycles: 1899785404 heartbeat IPC: 0.688391 cumulative IPC: 0.693507 (Simulation time: 7 hr 57 min 30 sec) 
Heartbeat CPU 1 instructions: 1000000001 cycles: 1904703929 heartbeat IPC: 0.386391 cumulative IPC: 0.500333 (Simulation time: 7 hr 58 min 34 sec) 
Heartbeat CPU 2 instructions: 670000000 cycles: 1910680290 heartbeat IPC: 0.345211 cumulative IPC: 0.322604 (Simulation time: 7 hr 59 min 51 sec) 
Heartbeat CPU 3 instructions: 1370000001 cycles: 1914285448 heartbeat IPC: 0.689653 cumulative IPC: 0.693478 (Simulation time: 8 hr 0 min 43 sec) 
Heartbeat CPU 3 instructions: 1380000001 cycles: 1928800392 heartbeat IPC: 0.688945 cumulative IPC: 0.693444 (Simulation time: 8 hr 3 min 55 sec) 
Heartbeat CPU 1 instructions: 1010000002 cycles: 1931563777 heartbeat IPC: 0.372303 cumulative IPC: 0.498538 (Simulation time: 8 hr 4 min 30 sec) 
Heartbeat CPU 0 instructions: 170000000 cycles: 1936254999 heartbeat IPC: 0.0685644 cumulative IPC: 0.0624858 (Simulation time: 8 hr 5 min 28 sec) 
Heartbeat CPU 2 instructions: 680000001 cycles: 1939958679 heartbeat IPC: 0.341549 cumulative IPC: 0.322892 (Simulation time: 8 hr 6 min 19 sec) 
Heartbeat CPU 3 instructions: 1390000002 cycles: 1943222876 heartbeat IPC: 0.693362 cumulative IPC: 0.693443 (Simulation time: 8 hr 6 min 56 sec) 
Heartbeat CPU 3 instructions: 1400000000 cycles: 1957496325 heartbeat IPC: 0.700601 cumulative IPC: 0.693496 (Simulation time: 8 hr 10 min 6 sec) 
Heartbeat CPU 1 instructions: 1020000002 cycles: 1957772098 heartbeat IPC: 0.381558 cumulative IPC: 0.496959 (Simulation time: 8 hr 10 min 9 sec) 
Heartbeat CPU 2 instructions: 690000003 cycles: 1969155832 heartbeat IPC: 0.342499 cumulative IPC: 0.323186 (Simulation time: 8 hr 12 min 44 sec) 
Heartbeat CPU 3 instructions: 1410000001 cycles: 1971889116 heartbeat IPC: 0.694792 cumulative IPC: 0.693505 (Simulation time: 8 hr 13 min 29 sec) 
Heartbeat CPU 3 instructions: 1420000003 cycles: 1986301098 heartbeat IPC: 0.693867 cumulative IPC: 0.693508 (Simulation time: 8 hr 17 min 8 sec) 
Heartbeat CPU 2 instructions: 700000001 cycles: 1996842123 heartbeat IPC: 0.36119 cumulative IPC: 0.323717 (Simulation time: 8 hr 19 min 45 sec) 
Heartbeat CPU 1 instructions: 1030000003 cycles: 1998260800 heartbeat IPC: 0.246982 cumulative IPC: 0.491854 (Simulation time: 8 hr 20 min 6 sec) 
Heartbeat CPU 3 instructions: 1430000000 cycles: 2000626751 heartbeat IPC: 0.698048 cumulative IPC: 0.693541 (Simulation time: 8 hr 20 min 46 sec) 
Heartbeat CPU 3 instructions: 1440000001 cycles: 2015002678 heartbeat IPC: 0.695607 cumulative IPC: 0.693555 (Simulation time: 8 hr 24 min 24 sec) 
Heartbeat CPU 2 instructions: 710000000 cycles: 2023985318 heartbeat IPC: 0.368416 cumulative IPC: 0.324321 (Simulation time: 8 hr 26 min 38 sec) 
Heartbeat CPU 3 instructions: 1450000002 cycles: 2029189733 heartbeat IPC: 0.704868 cumulative IPC: 0.693635 (Simulation time: 8 hr 27 min 50 sec) 
Heartbeat CPU 3 instructions: 1460000001 cycles: 2043573305 heartbeat IPC: 0.695238 cumulative IPC: 0.693647 (Simulation time: 8 hr 31 min 26 sec) 
Heartbeat CPU 1 instructions: 1040000001 cycles: 2043957932 heartbeat IPC: 0.218832 cumulative IPC: 0.485702 (Simulation time: 8 hr 31 min 33 sec) 
Heartbeat CPU 2 instructions: 720000001 cycles: 2051181863 heartbeat IPC: 0.367694 cumulative IPC: 0.3249 (Simulation time: 8 hr 33 min 19 sec) 
Heartbeat CPU 3 instructions: 1470000001 cycles: 2058011661 heartbeat IPC: 0.6926 cumulative IPC: 0.693639 (Simulation time: 8 hr 35 min 1 sec) 
Heartbeat CPU 3 instructions: 1480000001 cycles: 2072317894 heartbeat IPC: 0.698996 cumulative IPC: 0.693676 (Simulation time: 8 hr 38 min 28 sec) 
Heartbeat CPU 2 instructions: 730000003 cycles: 2078171706 heartbeat IPC: 0.37051 cumulative IPC: 0.325497 (Simulation time: 8 hr 39 min 53 sec) 
Heartbeat CPU 3 instructions: 1490000003 cycles: 2086593025 heartbeat IPC: 0.700519 cumulative IPC: 0.693724 (Simulation time: 8 hr 42 min 1 sec) 
Heartbeat CPU 1 instructions: 1050000002 cycles: 2090753090 heartbeat IPC: 0.213697 cumulative IPC: 0.479568 (Simulation time: 8 hr 43 min 3 sec) 
*** Reached end of trace for Core: 3 Repeating trace: ./traces/ligra/ligra_BellmanFord.com-lj.ungraph.gcc_6.3.0_O3.drop_14000M.length_250M.champsimtrace.xz
Heartbeat CPU 3 instructions: 1500000002 cycles: 2100866275 heartbeat IPC: 0.700611 cumulative IPC: 0.693771 (Simulation time: 8 hr 45 min 26 sec) 
Heartbeat CPU 2 instructions: 740000000 cycles: 2115019709 heartbeat IPC: 0.271385 cumulative IPC: 0.324547 (Simulation time: 8 hr 48 min 21 sec) 
Heartbeat CPU 3 instructions: 1510000003 cycles: 2115172887 heartbeat IPC: 0.698978 cumulative IPC: 0.693806 (Simulation time: 8 hr 48 min 23 sec) 
Heartbeat CPU 1 instructions: 1060000003 cycles: 2120284529 heartbeat IPC: 0.338622 cumulative IPC: 0.47759 (Simulation time: 8 hr 49 min 26 sec) 
Heartbeat CPU 3 instructions: 1520000001 cycles: 2129389694 heartbeat IPC: 0.703393 cumulative IPC: 0.693871 (Simulation time: 8 hr 51 min 15 sec) 
Heartbeat CPU 0 instructions: 180000000 cycles: 2132073511 heartbeat IPC: 0.0510677 cumulative IPC: 0.0614293 (Simulation time: 8 hr 51 min 47 sec) 
Heartbeat CPU 3 instructions: 1530000001 cycles: 2143798688 heartbeat IPC: 0.694011 cumulative IPC: 0.693872 (Simulation time: 8 hr 54 min 10 sec) 
Heartbeat CPU 1 instructions: 1070000002 cycles: 2145529078 heartbeat IPC: 0.396125 cumulative IPC: 0.476624 (Simulation time: 8 hr 54 min 30 sec) 
Heartbeat CPU 3 instructions: 1540000000 cycles: 2158213344 heartbeat IPC: 0.693738 cumulative IPC: 0.693871 (Simulation time: 8 hr 57 min 15 sec) 
Heartbeat CPU 1 instructions: 1080000002 cycles: 2170756651 heartbeat IPC: 0.396392 cumulative IPC: 0.475685 (Simulation time: 8 hr 59 min 56 sec) 
Heartbeat CPU 3 instructions: 1550000001 cycles: 2172634700 heartbeat IPC: 0.693416 cumulative IPC: 0.693868 (Simulation time: 9 hr 0 min 19 sec) 
*** Reached end of trace for Core: 2 Repeating trace: ./traces/ligra/ligra_BFSCC.com-lj.ungraph.gcc_6.3.0_O3.drop_18750M.length_250M.champsimtrace.xz
Heartbeat CPU 2 instructions: 750000000 cycles: 2185110246 heartbeat IPC: 0.142673 cumulative IPC: 0.318671 (Simulation time: 9 hr 2 min 41 sec) 
Heartbeat CPU 3 instructions: 1560000000 cycles: 2187097856 heartbeat IPC: 0.691412 cumulative IPC: 0.693851 (Simulation time: 9 hr 3 min 1 sec) 
Heartbeat CPU 1 instructions: 1090000001 cycles: 2199345492 heartbeat IPC: 0.349787 cumulative IPC: 0.474037 (Simulation time: 9 hr 5 min 17 sec) 
Heartbeat CPU 3 instructions: 1570000000 cycles: 2201529414 heartbeat IPC: 0.692926 cumulative IPC: 0.693845 (Simulation time: 9 hr 5 min 41 sec) 
Heartbeat CPU 2 instructions: 760000001 cycles: 2213665105 heartbeat IPC: 0.350203 cumulative IPC: 0.319081 (Simulation time: 9 hr 7 min 59 sec) 
Heartbeat CPU 3 instructions: 1580000001 cycles: 2215973796 heartbeat IPC: 0.692311 cumulative IPC: 0.693835 (Simulation time: 9 hr 8 min 22 sec) 
Heartbeat CPU 1 instructions: 1100000000 cycles: 2229666211 heartbeat IPC: 0.329807 cumulative IPC: 0.472061 (Simulation time: 9 hr 10 min 50 sec) 
Heartbeat CPU 3 instructions: 1590000002 cycles: 2230386896 heartbeat IPC: 0.693813 cumulative IPC: 0.693835 (Simulation time: 9 hr 10 min 59 sec) 
Heartbeat CPU 2 instructions: 770000000 cycles: 2240702147 heartbeat IPC: 0.369863 cumulative IPC: 0.319698 (Simulation time: 9 hr 12 min 54 sec) 
Heartbeat CPU 3 instructions: 1600000001 cycles: 2244911598 heartbeat IPC: 0.688482 cumulative IPC: 0.6938 (Simulation time: 9 hr 13 min 44 sec) 
Heartbeat CPU 3 instructions: 1610000002 cycles: 2259437954 heartbeat IPC: 0.688404 cumulative IPC: 0.693765 (Simulation time: 9 hr 16 min 36 sec) 
Heartbeat CPU 1 instructions: 1110000002 cycles: 2260176160 heartbeat IPC: 0.327762 cumulative IPC: 0.4701 (Simulation time: 9 hr 16 min 44 sec) 
Heartbeat CPU 2 instructions: 780000003 cycles: 2267963951 heartbeat IPC: 0.366814 cumulative IPC: 0.320268 (Simulation time: 9 hr 18 min 15 sec) 
Heartbeat CPU 3 instructions: 1620000000 cycles: 2273935599 heartbeat IPC: 0.689767 cumulative IPC: 0.69374 (Simulation time: 9 hr 19 min 29 sec) 
Heartbeat CPU 0 instructions: 190000002 cycles: 2279580618 heartbeat IPC: 0.0677934 cumulative IPC: 0.061844 (Simulation time: 9 hr 20 min 34 sec) 
Heartbeat CPU 3 instructions: 1630000002 cycles: 2288450573 heartbeat IPC: 0.688944 cumulative IPC: 0.693709 (Simulation time: 9 hr 22 min 15 sec) 
Heartbeat CPU 1 instructions: 1120000001 cycles: 2290051536 heartbeat IPC: 0.334724 cumulative IPC: 0.468321 (Simulation time: 9 hr 22 min 31 sec) 
Heartbeat CPU 2 instructions: 790000002 cycles: 2294930529 heartbeat IPC: 0.370829 cumulative IPC: 0.320866 (Simulation time: 9 hr 23 min 27 sec) 
Heartbeat CPU 3 instructions: 1640000003 cycles: 2302870498 heartbeat IPC: 0.693485 cumulative IPC: 0.693708 (Simulation time: 9 hr 24 min 59 sec) 
Heartbeat CPU 3 instructions: 1650000000 cycles: 2317147605 heartbeat IPC: 0.700422 cumulative IPC: 0.693749 (Simulation time: 9 hr 27 min 41 sec) 
Heartbeat CPU 1 instructions: 1130000003 cycles: 2319885616 heartbeat IPC: 0.335187 cumulative IPC: 0.466597 (Simulation time: 9 hr 28 min 13 sec) 
Heartbeat CPU 2 instructions: 800000000 cycles: 2322555456 heartbeat IPC: 0.361992 cumulative IPC: 0.321359 (Simulation time: 9 hr 28 min 42 sec) 
Heartbeat CPU 3 instructions: 1660000002 cycles: 2331546147 heartbeat IPC: 0.694515 cumulative IPC: 0.693754 (Simulation time: 9 hr 30 min 23 sec) 
Heartbeat CPU 3 instructions: 1670000000 cycles: 2345965670 heartbeat IPC: 0.693504 cumulative IPC: 0.693752 (Simulation time: 9 hr 32 min 59 sec) 
Heartbeat CPU 1 instructions: 1140000000 cycles: 2349913258 heartbeat IPC: 0.333026 cumulative IPC: 0.464879 (Simulation time: 9 hr 33 min 47 sec) 
Heartbeat CPU 2 instructions: 810000002 cycles: 2350463073 heartbeat IPC: 0.358325 cumulative IPC: 0.321801 (Simulation time: 9 hr 33 min 53 sec) 
Heartbeat CPU 3 instructions: 1680000000 cycles: 2360291118 heartbeat IPC: 0.698058 cumulative IPC: 0.693779 (Simulation time: 9 hr 35 min 42 sec) 
Heartbeat CPU 3 instructions: 1690000002 cycles: 2374669754 heartbeat IPC: 0.695476 cumulative IPC: 0.693789 (Simulation time: 9 hr 38 min 32 sec) 
Heartbeat CPU 2 instructions: 820000001 cycles: 2378451092 heartbeat IPC: 0.357296 cumulative IPC: 0.322221 (Simulation time: 9 hr 39 min 12 sec) 
Heartbeat CPU 1 instructions: 1150000001 cycles: 2380241549 heartbeat IPC: 0.329725 cumulative IPC: 0.463145 (Simulation time: 9 hr 39 min 33 sec) 
Heartbeat CPU 3 instructions: 1700000000 cycles: 2388857524 heartbeat IPC: 0.704832 cumulative IPC: 0.693855 (Simulation time: 9 hr 41 min 12 sec) 
Heartbeat CPU 3 instructions: 1710000002 cycles: 2403242261 heartbeat IPC: 0.695181 cumulative IPC: 0.693863 (Simulation time: 9 hr 43 min 48 sec) 
Heartbeat CPU 2 instructions: 830000001 cycles: 2406617964 heartbeat IPC: 0.355027 cumulative IPC: 0.322608 (Simulation time: 9 hr 44 min 27 sec) 
Heartbeat CPU 1 instructions: 1160000003 cycles: 2409950387 heartbeat IPC: 0.3366 cumulative IPC: 0.461575 (Simulation time: 9 hr 45 min 3 sec) 
Heartbeat CPU 3 instructions: 1720000002 cycles: 2417681486 heartbeat IPC: 0.692558 cumulative IPC: 0.693855 (Simulation time: 9 hr 46 min 31 sec) 
Heartbeat CPU 3 instructions: 1730000002 cycles: 2431987484 heartbeat IPC: 0.699008 cumulative IPC: 0.693886 (Simulation time: 9 hr 49 min 18 sec) 
Heartbeat CPU 2 instructions: 840000000 cycles: 2434770925 heartbeat IPC: 0.355202 cumulative IPC: 0.322987 (Simulation time: 9 hr 49 min 52 sec) 
Heartbeat CPU 1 instructions: 1170000001 cycles: 2439554751 heartbeat IPC: 0.337788 cumulative IPC: 0.460063 (Simulation time: 9 hr 50 min 50 sec) 
Heartbeat CPU 0 instructions: 200000000 cycles: 2441197231 heartbeat IPC: 0.0618748 cumulative IPC: 0.061846 (Simulation time: 9 hr 51 min 6 sec) 
Heartbeat CPU 3 instructions: 1740000000 cycles: 2446260246 heartbeat IPC: 0.700635 cumulative IPC: 0.693925 (Simulation time: 9 hr 52 min 5 sec) 
*** Reached end of trace for Core: 3 Repeating trace: ./traces/ligra/ligra_BellmanFord.com-lj.ungraph.gcc_6.3.0_O3.drop_14000M.length_250M.champsimtrace.xz
Heartbeat CPU 3 instructions: 1750000003 cycles: 2460537819 heartbeat IPC: 0.700399 cumulative IPC: 0.693963 (Simulation time: 9 hr 54 min 24 sec) 
Heartbeat CPU 2 instructions: 850000002 cycles: 2462961368 heartbeat IPC: 0.35473 cumulative IPC: 0.323353 (Simulation time: 9 hr 54 min 48 sec) 
Heartbeat CPU 1 instructions: 1180000000 cycles: 2468313998 heartbeat IPC: 0.347714 cumulative IPC: 0.458746 (Simulation time: 9 hr 55 min 42 sec) 
Heartbeat CPU 3 instructions: 1760000000 cycles: 2474852142 heartbeat IPC: 0.698601 cumulative IPC: 0.69399 (Simulation time: 9 hr 56 min 44 sec) 
Heartbeat CPU 3 instructions: 1770000000 cycles: 2489072334 heartbeat IPC: 0.703225 cumulative IPC: 0.694043 (Simulation time: 9 hr 59 min 33 sec) 
Heartbeat CPU 2 instructions: 860000003 cycles: 2491198407 heartbeat IPC: 0.354145 cumulative IPC: 0.323704 (Simulation time: 9 hr 59 min 58 sec) 
Heartbeat CPU 1 instructions: 1190000000 cycles: 2498346539 heartbeat IPC: 0.332972 cumulative IPC: 0.457224 (Simulation time: 10 hr 1 min 15 sec) 
Heartbeat CPU 3 instructions: 1780000002 cycles: 2503474123 heartbeat IPC: 0.694358 cumulative IPC: 0.694045 (Simulation time: 10 hr 2 min 7 sec) 
Heartbeat CPU 3 instructions: 1790000002 cycles: 2517891487 heartbeat IPC: 0.693608 cumulative IPC: 0.694043 (Simulation time: 10 hr 4 min 28 sec) 
Heartbeat CPU 2 instructions: 870000003 cycles: 2520054474 heartbeat IPC: 0.346548 cumulative IPC: 0.323967 (Simulation time: 10 hr 4 min 51 sec) 
Heartbeat CPU 1 instructions: 1200000003 cycles: 2527766856 heartbeat IPC: 0.339901 cumulative IPC: 0.45585 (Simulation time: 10 hr 6 min 13 sec) 
Heartbeat CPU 3 instructions: 1800000000 cycles: 2532306153 heartbeat IPC: 0.693738 cumulative IPC: 0.694041 (Simulation time: 10 hr 7 min 8 sec) 
Heartbeat CPU 3 instructions: 1810000001 cycles: 2546766575 heartbeat IPC: 0.691543 cumulative IPC: 0.694027 (Simulation time: 10 hr 9 min 41 sec) 
Heartbeat CPU 2 instructions: 880000000 cycles: 2549182735 heartbeat IPC: 0.343309 cumulative IPC: 0.32419 (Simulation time: 10 hr 10 min 7 sec) 
Heartbeat CPU 1 instructions: 1210000000 cycles: 2557227030 heartbeat IPC: 0.339441 cumulative IPC: 0.454501 (Simulation time: 10 hr 11 min 41 sec) 
Heartbeat CPU 3 instructions: 1820000001 cycles: 2561199306 heartbeat IPC: 0.69287 cumulative IPC: 0.69402 (Simulation time: 10 hr 12 min 28 sec) 
Heartbeat CPU 3 instructions: 1830000000 cycles: 2575640301 heartbeat IPC: 0.692473 cumulative IPC: 0.694011 (Simulation time: 10 hr 15 min 1 sec) 
Heartbeat CPU 2 instructions: 890000001 cycles: 2578080601 heartbeat IPC: 0.346046 cumulative IPC: 0.324436 (Simulation time: 10 hr 15 min 31 sec) 
Heartbeat CPU 1 instructions: 1220000000 cycles: 2588026054 heartbeat IPC: 0.324686 cumulative IPC: 0.452946 (Simulation time: 10 hr 17 min 25 sec) 
Heartbeat CPU 3 instructions: 1840000000 cycles: 2590050920 heartbeat IPC: 0.693933 cumulative IPC: 0.694011 (Simulation time: 10 hr 17 min 48 sec) 
Heartbeat CPU 3 instructions: 1850000002 cycles: 2604571458 heartbeat IPC: 0.68868 cumulative IPC: 0.693981 (Simulation time: 10 hr 20 min 25 sec) 
Heartbeat CPU 2 instructions: 900000002 cycles: 2609722759 heartbeat IPC: 0.316034 cumulative IPC: 0.324334 (Simulation time: 10 hr 21 min 24 sec) 
Heartbeat CPU 1 instructions: 1230000002 cycles: 2615195863 heartbeat IPC: 0.368056 cumulative IPC: 0.452059 (Simulation time: 10 hr 22 min 25 sec) 
Heartbeat CPU 0 instructions: 210000000 cycles: 2615601136 heartbeat IPC: 0.0573382 cumulative IPC: 0.0615436 (Simulation time: 10 hr 22 min 29 sec) 
Heartbeat CPU 3 instructions: 1860000003 cycles: 2619092690 heartbeat IPC: 0.688647 cumulative IPC: 0.693951 (Simulation time: 10 hr 23 min 10 sec) 
Heartbeat CPU 3 instructions: 1870000000 cycles: 2633584700 heartbeat IPC: 0.690035 cumulative IPC: 0.693929 (Simulation time: 10 hr 26 min 2 sec) 
Heartbeat CPU 1 instructions: 1240000002 cycles: 2641397538 heartbeat IPC: 0.381655 cumulative IPC: 0.451356 (Simulation time: 10 hr 27 min 34 sec) 
Heartbeat CPU 2 instructions: 910000000 cycles: 2645059489 heartbeat IPC: 0.282992 cumulative IPC: 0.323778 (Simulation time: 10 hr 28 min 13 sec) 
Heartbeat CPU 3 instructions: 1880000003 cycles: 2648098421 heartbeat IPC: 0.689003 cumulative IPC: 0.693902 (Simulation time: 10 hr 28 min 43 sec) 
Heartbeat CPU 3 instructions: 1890000000 cycles: 2662522327 heartbeat IPC: 0.693293 cumulative IPC: 0.693899 (Simulation time: 10 hr 31 min 48 sec) 
Heartbeat CPU 1 instructions: 1250000001 cycles: 2668034413 heartbeat IPC: 0.375419 cumulative IPC: 0.450594 (Simulation time: 10 hr 33 min 2 sec) 
Heartbeat CPU 2 instructions: 920000000 cycles: 2673519588 heartbeat IPC: 0.351369 cumulative IPC: 0.324073 (Simulation time: 10 hr 34 min 16 sec) 
Heartbeat CPU 3 instructions: 1900000002 cycles: 2676796880 heartbeat IPC: 0.700547 cumulative IPC: 0.693935 (Simulation time: 10 hr 34 min 53 sec) 
Heartbeat CPU 3 instructions: 1910000003 cycles: 2691188682 heartbeat IPC: 0.69484 cumulative IPC: 0.69394 (Simulation time: 10 hr 37 min 49 sec) 
Heartbeat CPU 1 instructions: 1260000003 cycles: 2695533063 heartbeat IPC: 0.363654 cumulative IPC: 0.449702 (Simulation time: 10 hr 38 min 46 sec) 
Heartbeat CPU 2 instructions: 930000001 cycles: 2702230277 heartbeat IPC: 0.348302 cumulative IPC: 0.324332 (Simulation time: 10 hr 40 min 11 sec) 
Heartbeat CPU 3 instructions: 1920000001 cycles: 2705598675 heartbeat IPC: 0.693963 cumulative IPC: 0.69394 (Simulation time: 10 hr 40 min 45 sec) 
Heartbeat CPU 3 instructions: 1930000001 cycles: 2719926839 heartbeat IPC: 0.697926 cumulative IPC: 0.693961 (Simulation time: 10 hr 43 min 32 sec) 
Heartbeat CPU 1 instructions: 1270000001 cycles: 2722869900 heartbeat IPC: 0.365807 cumulative IPC: 0.448854 (Simulation time: 10 hr 44 min 12 sec) 
Heartbeat CPU 2 instructions: 940000001 cycles: 2730991575 heartbeat IPC: 0.347689 cumulative IPC: 0.32458 (Simulation time: 10 hr 45 min 57 sec) 
Heartbeat CPU 3 instructions: 1940000003 cycles: 2734302505 heartbeat IPC: 0.69562 cumulative IPC: 0.69397 (Simulation time: 10 hr 46 min 46 sec) 
Heartbeat CPU 3 instructions: 1950000000 cycles: 2748488418 heartbeat IPC: 0.704924 cumulative IPC: 0.694026 (Simulation time: 10 hr 50 min 17 sec) 
Heartbeat CPU 2 instructions: 950000003 cycles: 2758043368 heartbeat IPC: 0.369661 cumulative IPC: 0.325025 (Simulation time: 10 hr 52 min 41 sec) 
Heartbeat CPU 3 instructions: 1960000003 cycles: 2762865761 heartbeat IPC: 0.695539 cumulative IPC: 0.694034 (Simulation time: 10 hr 53 min 53 sec) 
Heartbeat CPU 1 instructions: 1280000000 cycles: 2764777912 heartbeat IPC: 0.238618 cumulative IPC: 0.445649 (Simulation time: 10 hr 54 min 22 sec) 
Heartbeat CPU 3 instructions: 1970000003 cycles: 2777302654 heartbeat IPC: 0.69267 cumulative IPC: 0.694027 (Simulation time: 10 hr 57 min 40 sec) 
Heartbeat CPU 0 instructions: 220000000 cycles: 2779870564 heartbeat IPC: 0.0608756 cumulative IPC: 0.0615039 (Simulation time: 10 hr 58 min 22 sec) 
Heartbeat CPU 2 instructions: 960000001 cycles: 2785039964 heartbeat IPC: 0.370417 cumulative IPC: 0.325467 (Simulation time: 10 hr 59 min 44 sec) 
Heartbeat CPU 3 instructions: 1980000000 cycles: 2791606542 heartbeat IPC: 0.69911 cumulative IPC: 0.694053 (Simulation time: 11 hr 1 min 9 sec) 
Heartbeat CPU 3 instructions: 1990000002 cycles: 2805878070 heartbeat IPC: 0.700696 cumulative IPC: 0.694087 (Simulation time: 11 hr 4 min 33 sec) 
Heartbeat CPU 1 instructions: 1290000003 cycles: 2810660534 heartbeat IPC: 0.217947 cumulative IPC: 0.441911 (Simulation time: 11 hr 5 min 45 sec) 
Heartbeat CPU 2 instructions: 970000003 cycles: 2812156512 heartbeat IPC: 0.368779 cumulative IPC: 0.325887 (Simulation time: 11 hr 6 min 7 sec) 
*** Reached end of trace for Core: 3 Repeating trace: ./traces/ligra/ligra_BellmanFord.com-lj.ungraph.gcc_6.3.0_O3.drop_14000M.length_250M.champsimtrace.xz
Heartbeat CPU 3 instructions: 2000000000 cycles: 2820154437 heartbeat IPC: 0.700458 cumulative IPC: 0.69412 (Simulation time: 11 hr 8 min 9 sec) 
Heartbeat CPU 3 instructions: 2010000000 cycles: 2834465478 heartbeat IPC: 0.698761 cumulative IPC: 0.694143 (Simulation time: 11 hr 11 min 41 sec) 
Heartbeat CPU 2 instructions: 980000003 cycles: 2839310569 heartbeat IPC: 0.368269 cumulative IPC: 0.326295 (Simulation time: 11 hr 12 min 53 sec) 
Heartbeat CPU 3 instructions: 2020000001 cycles: 2848686610 heartbeat IPC: 0.703179 cumulative IPC: 0.694189 (Simulation time: 11 hr 15 min 7 sec) 
Heartbeat CPU 1 instructions: 1300000003 cycles: 2856881415 heartbeat IPC: 0.216352 cumulative IPC: 0.438242 (Simulation time: 11 hr 17 min 8 sec) 
Heartbeat CPU 3 instructions: 2030000003 cycles: 2863082026 heartbeat IPC: 0.694666 cumulative IPC: 0.694191 (Simulation time: 11 hr 18 min 23 sec) 
Heartbeat CPU 2 instructions: 990000000 cycles: 2876171085 heartbeat IPC: 0.271293 cumulative IPC: 0.325586 (Simulation time: 11 hr 20 min 51 sec) 
Heartbeat CPU 3 instructions: 2040000003 cycles: 2877495333 heartbeat IPC: 0.693803 cumulative IPC: 0.694189 (Simulation time: 11 hr 21 min 5 sec) 
Heartbeat CPU 1 instructions: 1310000002 cycles: 2883741283 heartbeat IPC: 0.372303 cumulative IPC: 0.437624 (Simulation time: 11 hr 22 min 18 sec) 
Heartbeat CPU 3 instructions: 2050000000 cycles: 2891919456 heartbeat IPC: 0.693283 cumulative IPC: 0.694185 (Simulation time: 11 hr 23 min 56 sec) 
Heartbeat CPU 3 instructions: 2060000000 cycles: 2906388864 heartbeat IPC: 0.691113 cumulative IPC: 0.694169 (Simulation time: 11 hr 26 min 57 sec) 
Heartbeat CPU 1 instructions: 1320000000 cycles: 2908650448 heartbeat IPC: 0.401459 cumulative IPC: 0.437313 (Simulation time: 11 hr 27 min 25 sec) 
Heartbeat CPU 3 instructions: 2070000002 cycles: 2920824299 heartbeat IPC: 0.69274 cumulative IPC: 0.694162 (Simulation time: 11 hr 29 min 57 sec) 
Heartbeat CPU 1 instructions: 1330000002 cycles: 2933110907 heartbeat IPC: 0.408823 cumulative IPC: 0.437074 (Simulation time: 11 hr 32 min 13 sec) 
Heartbeat CPU 3 instructions: 2080000001 cycles: 2935261912 heartbeat IPC: 0.692635 cumulative IPC: 0.694155 (Simulation time: 11 hr 32 min 36 sec) 
*** Reached end of trace for Core: 2 Repeating trace: ./traces/ligra/ligra_BFSCC.com-lj.ungraph.gcc_6.3.0_O3.drop_18750M.length_250M.champsimtrace.xz
Heartbeat CPU 2 instructions: 1000000000 cycles: 2946262721 heartbeat IPC: 0.14267 cumulative IPC: 0.321211 (Simulation time: 11 hr 34 min 42 sec) 
Heartbeat CPU 3 instructions: 2090000000 cycles: 2949666934 heartbeat IPC: 0.694202 cumulative IPC: 0.694155 (Simulation time: 11 hr 35 min 15 sec) 
Heartbeat CPU 1 instructions: 1340000000 cycles: 2959914739 heartbeat IPC: 0.373081 cumulative IPC: 0.436491 (Simulation time: 11 hr 36 min 57 sec) 
Heartbeat CPU 3 instructions: 2100000000 cycles: 2964197174 heartbeat IPC: 0.68822 cumulative IPC: 0.694126 (Simulation time: 11 hr 37 min 38 sec) 
Heartbeat CPU 2 instructions: 1010000001 cycles: 2973982384 heartbeat IPC: 0.360755 cumulative IPC: 0.321581 (Simulation time: 11 hr 39 min 15 sec) 
Heartbeat CPU 0 instructions: 230000002 cycles: 2974532222 heartbeat IPC: 0.0513712 cumulative IPC: 0.0608373 (Simulation time: 11 hr 39 min 20 sec) 
Heartbeat CPU 3 instructions: 2110000000 cycles: 2978723291 heartbeat IPC: 0.688415 cumulative IPC: 0.694098 (Simulation time: 11 hr 40 min 7 sec) 
Heartbeat CPU 1 instructions: 1350000001 cycles: 2990272340 heartbeat IPC: 0.329407 cumulative IPC: 0.435398 (Simulation time: 11 hr 42 min 7 sec) 
Heartbeat CPU 3 instructions: 2120000002 cycles: 2993227027 heartbeat IPC: 0.689478 cumulative IPC: 0.694075 (Simulation time: 11 hr 42 min 40 sec) 
Heartbeat CPU 2 instructions: 1020000003 cycles: 3001093525 heartbeat IPC: 0.368852 cumulative IPC: 0.322011 (Simulation time: 11 hr 43 min 54 sec) 
Heartbeat CPU 3 instructions: 2130000000 cycles: 3007750248 heartbeat IPC: 0.688552 cumulative IPC: 0.694048 (Simulation time: 11 hr 45 min 6 sec) 
Heartbeat CPU 1 instructions: 1360000000 cycles: 3020701781 heartbeat IPC: 0.328629 cumulative IPC: 0.434317 (Simulation time: 11 hr 47 min 15 sec) 
Heartbeat CPU 3 instructions: 2140000001 cycles: 3022178912 heartbeat IPC: 0.693065 cumulative IPC: 0.694044 (Simulation time: 11 hr 47 min 28 sec) 
Heartbeat CPU 2 instructions: 1030000003 cycles: 3028558122 heartbeat IPC: 0.364105 cumulative IPC: 0.322394 (Simulation time: 11 hr 48 min 37 sec) 
Heartbeat CPU 3 instructions: 2150000001 cycles: 3036457565 heartbeat IPC: 0.700346 cumulative IPC: 0.694073 (Simulation time: 11 hr 50 min 2 sec) 
Heartbeat CPU 3 instructions: 2160000000 cycles: 3050851889 heartbeat IPC: 0.694718 cumulative IPC: 0.694076 (Simulation time: 11 hr 52 min 23 sec) 
Heartbeat CPU 1 instructions: 1370000003 cycles: 3051401769 heartbeat IPC: 0.325733 cumulative IPC: 0.433219 (Simulation time: 11 hr 52 min 28 sec) 
Heartbeat CPU 2 instructions: 1040000003 cycles: 3055506525 heartbeat IPC: 0.37108 cumulative IPC: 0.322826 (Simulation time: 11 hr 53 min 7 sec) 
Heartbeat CPU 3 instructions: 2170000002 cycles: 3065269306 heartbeat IPC: 0.693606 cumulative IPC: 0.694074 (Simulation time: 11 hr 54 min 51 sec) 
Heartbeat CPU 3 instructions: 2180000000 cycles: 3079592895 heartbeat IPC: 0.698149 cumulative IPC: 0.694093 (Simulation time: 11 hr 57 min 25 sec) 
Heartbeat CPU 1 instructions: 1380000000 cycles: 3081882593 heartbeat IPC: 0.328075 cumulative IPC: 0.432174 (Simulation time: 11 hr 57 min 52 sec) 
Heartbeat CPU 2 instructions: 1050000000 cycles: 3082578868 heartbeat IPC: 0.369381 cumulative IPC: 0.323237 (Simulation time: 11 hr 57 min 59 sec) 
Heartbeat CPU 3 instructions: 2190000000 cycles: 3093968999 heartbeat IPC: 0.695599 cumulative IPC: 0.6941 (Simulation time: 11 hr 59 min 45 sec) 
Heartbeat CPU 3 instructions: 2200000000 cycles: 3108156927 heartbeat IPC: 0.704825 cumulative IPC: 0.694149 (Simulation time: 12 hr 2 min 5 sec) 
Heartbeat CPU 2 instructions: 1060000003 cycles: 3110151032 heartbeat IPC: 0.362685 cumulative IPC: 0.323588 (Simulation time: 12 hr 2 min 24 sec) 
Heartbeat CPU 1 instructions: 1390000002 cycles: 3111683202 heartbeat IPC: 0.335564 cumulative IPC: 0.431244 (Simulation time: 12 hr 2 min 39 sec) 
Heartbeat CPU 3 instructions: 2210000001 cycles: 3122534393 heartbeat IPC: 0.695533 cumulative IPC: 0.694156 (Simulation time: 12 hr 4 min 23 sec) 
Heartbeat CPU 3 instructions: 2220000000 cycles: 3136973986 heartbeat IPC: 0.69254 cumulative IPC: 0.694148 (Simulation time: 12 hr 7 min 5 sec) 
Heartbeat CPU 2 instructions: 1070000001 cycles: 3137558317 heartbeat IPC: 0.364866 cumulative IPC: 0.323951 (Simulation time: 12 hr 7 min 11 sec) 
Heartbeat CPU 1 instructions: 1400000003 cycles: 3142410858 heartbeat IPC: 0.32544 cumulative IPC: 0.430204 (Simulation time: 12 hr 8 min 3 sec) 
Heartbeat CPU 0 instructions: 240000002 cycles: 3146540026 heartbeat IPC: 0.0581369 cumulative IPC: 0.0606889 (Simulation time: 12 hr 8 min 48 sec) 
Heartbeat CPU 3 instructions: 2230000000 cycles: 3151282338 heartbeat IPC: 0.698893 cumulative IPC: 0.69417 (Simulation time: 12 hr 9 min 32 sec) 
Heartbeat CPU 2 instructions: 1080000001 cycles: 3165160945 heartbeat IPC: 0.362284 cumulative IPC: 0.324287 (Simulation time: 12 hr 11 min 54 sec) 
Heartbeat CPU 3 instructions: 2240000002 cycles: 3165549635 heartbeat IPC: 0.700904 cumulative IPC: 0.694201 (Simulation time: 12 hr 11 min 57 sec) 
Heartbeat CPU 1 instructions: 1410000002 cycles: 3172900420 heartbeat IPC: 0.327981 cumulative IPC: 0.429217 (Simulation time: 12 hr 13 min 6 sec) 
*** Reached end of trace for Core: 3 Repeating trace: ./traces/ligra/ligra_BellmanFord.com-lj.ungraph.gcc_6.3.0_O3.drop_14000M.length_250M.champsimtrace.xz
Heartbeat CPU 3 instructions: 2250000001 cycles: 3179826048 heartbeat IPC: 0.700456 cumulative IPC: 0.694229 (Simulation time: 12 hr 14 min 10 sec) 
Heartbeat CPU 2 instructions: 1090000000 cycles: 3193153491 heartbeat IPC: 0.357238 cumulative IPC: 0.324577 (Simulation time: 12 hr 16 min 22 sec) 
Heartbeat CPU 3 instructions: 2260000001 cycles: 3194141093 heartbeat IPC: 0.698566 cumulative IPC: 0.694248 (Simulation time: 12 hr 16 min 32 sec) 
Heartbeat CPU 1 instructions: 1420000001 cycles: 3202115807 heartbeat IPC: 0.342285 cumulative IPC: 0.428419 (Simulation time: 12 hr 17 min 51 sec) 
Heartbeat CPU 3 instructions: 2270000000 cycles: 3208358535 heartbeat IPC: 0.703361 cumulative IPC: 0.694289 (Simulation time: 12 hr 18 min 57 sec) 
Heartbeat CPU 2 instructions: 1100000000 cycles: 3221105385 heartbeat IPC: 0.357758 cumulative IPC: 0.324866 (Simulation time: 12 hr 21 min 5 sec) 
Heartbeat CPU 3 instructions: 2280000000 cycles: 3222761806 heartbeat IPC: 0.694287 cumulative IPC: 0.694289 (Simulation time: 12 hr 21 min 21 sec) 
Heartbeat CPU 1 instructions: 1430000000 cycles: 3231186447 heartbeat IPC: 0.34399 cumulative IPC: 0.427656 (Simulation time: 12 hr 22 min 42 sec) 
Heartbeat CPU 3 instructions: 2290000000 cycles: 3237180354 heartbeat IPC: 0.693551 cumulative IPC: 0.694286 (Simulation time: 12 hr 23 min 38 sec) 
Heartbeat CPU 2 instructions: 1110000001 cycles: 3248815882 heartbeat IPC: 0.360874 cumulative IPC: 0.325175 (Simulation time: 12 hr 25 min 34 sec) 
Heartbeat CPU 3 instructions: 2300000000 cycles: 3251600803 heartbeat IPC: 0.69346 cumulative IPC: 0.694282 (Simulation time: 12 hr 26 min 1 sec) 
Heartbeat CPU 1 instructions: 1440000001 cycles: 3260123767 heartbeat IPC: 0.345575 cumulative IPC: 0.426924 (Simulation time: 12 hr 27 min 31 sec) 
Heartbeat CPU 3 instructions: 2310000000 cycles: 3266065833 heartbeat IPC: 0.691322 cumulative IPC: 0.694269 (Simulation time: 12 hr 28 min 27 sec) 
Heartbeat CPU 2 instructions: 1120000003 cycles: 3277201710 heartbeat IPC: 0.352289 cumulative IPC: 0.325411 (Simulation time: 12 hr 30 min 26 sec) 
Heartbeat CPU 3 instructions: 2320000003 cycles: 3280492376 heartbeat IPC: 0.693167 cumulative IPC: 0.694264 (Simulation time: 12 hr 30 min 59 sec) 
Heartbeat CPU 1 instructions: 1450000003 cycles: 3288609712 heartbeat IPC: 0.35105 cumulative IPC: 0.426264 (Simulation time: 12 hr 32 min 18 sec) 
Heartbeat CPU 3 instructions: 2330000000 cycles: 3294933905 heartbeat IPC: 0.692447 cumulative IPC: 0.694256 (Simulation time: 12 hr 33 min 24 sec) 
[...]
L2C AVERAGE MISS LATENCY: 5136.41 cycles
L2C RQ	ACCESS:   18863221	FORWARD:          0	MERGED:          0	TO_CACHE:   18863221
L2C WQ	ACCESS:   14398154	FORWARD:          0	MERGED:          0	TO_CACHE:   14398154
L2C PQ	ACCESS:   68589832	FORWARD:          0	MERGED:    1671966	TO_CACHE:   66917866

L2C Instructions Evicting Data 167
L2C Translations Evicting Data 56882
L2C Data Evicting Data 27685464
L2C Instructions Evicting Instructions 0
L2C Translations Evicting Instructions 0
L2C Data Evicting Instructions 149
L2C Instructions Evicting Translations 0
L2C Translations Evicting Translations 48
L2C Data Evicting Translations 53702
L2C Dense regions hint from L2: 0
PSCL5 TOTAL     ACCESS:     458349  HIT:     458349  MISS:          0  HIT %:        100  MISS %:          0   MPKI: 0
PSCL5 LOAD TRANSLATION ACCESS:      69885  HIT:      69885  MISS:          0  HIT %:        100  MISS %:          0   MPKI: 0
PSCL5 TRANSLATION FROM L1D PREFETCHER ACCESS:     388464  HIT:     388464  MISS:          0  HIT %:        100  MISS %:          0   MPKI: 0
PSCL5 PREFETCH  REQUESTED:          0  ISSUED:          0  USEFUL:          0  USELESS:          0
PSCL5 USEFUL LOAD PREFETCHES:          0 PREFETCH ISSUED TO LOWER LEVEL:          0  ACCURACY: -nan
PSCL5 TIMELY PREFETCHES:          0 LATE PREFETCHES: 0 DROPPED PREFETCHES: 0
PSCL5 PREFETCHES SAME FILL-ORIGIN LEVEL: 0 DIFFERENT FILL-ORIGIN LEVEL: 0

PSCL4 TOTAL     ACCESS:     458349  HIT:     458348  MISS:          1  HIT %:    99.9998  MISS %: 0.000218174   MPKI: 5e-06
PSCL4 LOAD TRANSLATION ACCESS:      69885  HIT:      69884  MISS:          1  HIT %:    99.9986  MISS %: 0.00143092   MPKI: 5e-06
PSCL4 TRANSLATION FROM L1D PREFETCHER ACCESS:     388464  HIT:     388464  MISS:          0  HIT %:        100  MISS %:          0   MPKI: 0
PSCL4 PREFETCH  REQUESTED:          0  ISSUED:          0  USEFUL:          0  USELESS:          0
PSCL4 USEFUL LOAD PREFETCHES:          0 PREFETCH ISSUED TO LOWER LEVEL:          0  ACCURACY: -nan
PSCL4 TIMELY PREFETCHES:          0 LATE PREFETCHES: 0 DROPPED PREFETCHES: 0
PSCL4 PREFETCHES SAME FILL-ORIGIN LEVEL: 0 DIFFERENT FILL-ORIGIN LEVEL: 0

PSCL3 TOTAL     ACCESS:     458349  HIT:     458348  MISS:          1  HIT %:    99.9998  MISS %: 0.000218174   MPKI: 5e-06
PSCL3 LOAD TRANSLATION ACCESS:      69885  HIT:      69884  MISS:          1  HIT %:    99.9986  MISS %: 0.00143092   MPKI: 5e-06
PSCL3 TRANSLATION FROM L1D PREFETCHER ACCESS:     388464  HIT:     388464  MISS:          0  HIT %:        100  MISS %:          0   MPKI: 0
PSCL3 PREFETCH  REQUESTED:          0  ISSUED:          0  USEFUL:          0  USELESS:          0
PSCL3 USEFUL LOAD PREFETCHES:          0 PREFETCH ISSUED TO LOWER LEVEL:          0  ACCURACY: -nan
PSCL3 TIMELY PREFETCHES:          0 LATE PREFETCHES: 0 DROPPED PREFETCHES: 0
PSCL3 PREFETCHES SAME FILL-ORIGIN LEVEL: 0 DIFFERENT FILL-ORIGIN LEVEL: 0

PSCL2 TOTAL     ACCESS:     458020  HIT:     457850  MISS:        170  HIT %:    99.9629  MISS %:  0.0371163   MPKI: 0.00085
PSCL2 LOAD TRANSLATION ACCESS:      69898  HIT:      69728  MISS:        170  HIT %:    99.7568  MISS %:   0.243212   MPKI: 0.00085
PSCL2 TRANSLATION FROM L1D PREFETCHER ACCESS:     388122  HIT:     388122  MISS:          0  HIT %:        100  MISS %:          0   MPKI: 0
PSCL2 PREFETCH  REQUESTED:          0  ISSUED:          0  USEFUL:          0  USELESS:          0
PSCL2 USEFUL LOAD PREFETCHES:          0 PREFETCH ISSUED TO LOWER LEVEL:          0  ACCURACY: -nan
PSCL2 TIMELY PREFETCHES:          0 LATE PREFETCHES: 0 DROPPED PREFETCHES: 0
PSCL2 PREFETCHES SAME FILL-ORIGIN LEVEL: 0 DIFFERENT FILL-ORIGIN LEVEL: 0

LLC TOTAL     ACCESS:    8016704  HIT:    2828294  MISS:    5188410  HIT %:      35.28  MISS %:      64.72   MPKI: 25.942
LLC LOAD      ACCESS:      97623  HIT:         20  MISS:      97603  HIT %:   0.020487  MISS %:    99.9795   MPKI: 0.488015
LLC RFO       ACCESS:    2680226  HIT:          0  MISS:    2680226  HIT %:          0  MISS %:        100   MPKI: 13.4011
LLC PREFETCH  ACCESS:    2295418  HIT:        710  MISS:    2294708  HIT %:  0.0309312  MISS %:    99.9691   MPKI: 11.4735
LLC WRITEBACK ACCESS:    2933077  HIT:    2827295  MISS:     105782  HIT %:    96.3935  MISS %:    3.60652   MPKI: 0.52891
LLC LOAD TRANSLATION ACCESS:       6060  HIT:        226  MISS:       5834  HIT %:    3.72937  MISS %:    96.2706   MPKI: 0.02917
LLC TRANSLATION FROM L1D PREFETCHER ACCESS:       4300  HIT:         43  MISS:       4257  HIT %:          1  MISS %:         99   MPKI: 0.021285
LLC PREFETCH  REQUESTED:          0  ISSUED:          0  USEFUL:       7379  USELESS:   27723219
LLC USEFUL LOAD PREFETCHES:       7379 PREFETCH ISSUED TO LOWER LEVEL:   27702817  ACCURACY: 0.0266363
LLC TIMELY PREFETCHES:       7379 LATE PREFETCHES: 0 DROPPED PREFETCHES: 0
LLC PREFETCHES SAME FILL-ORIGIN LEVEL: 0 DIFFERENT FILL-ORIGIN LEVEL: 0
LLC AVERAGE MISS LATENCY: 17331.5 cycles
LLC RQ	ACCESS:   62433793	FORWARD:          0	MERGED:          0	TO_CACHE:   62432584
LLC WQ	ACCESS:   58014974	FORWARD:       1209	MERGED:          0	TO_CACHE:   58014974
LLC PQ	ACCESS:   27709635	FORWARD:          0	MERGED:          0	TO_CACHE:   27709635

LLC Dense regions hint to LLC: 0

RAW hits: 7805
Loads Generated: 39302699
Loads sent to L1D: 39294894
Stores Generated: 39942480
Stores sent to L1D: 39942477
Major fault: 0 Minor fault: 89531
Allocated PAGES: 564225

CPU 3 cumulative IPC: 0.685976 instructions: 200000003 cycles: 291555490
ITLB TOTAL     ACCESS:   34799028  HIT:   34799028  MISS:          0  HIT %:        100  MISS %:          0   MPKI: 0
ITLB LOAD TRANSLATION ACCESS:   34799028  HIT:   34799028  MISS:          0  HIT %:        100  MISS %:          0   MPKI: 0
ITLB PREFETCH  REQUESTED:          0  ISSUED:          0  USEFUL:          0  USELESS:          0
ITLB USEFUL LOAD PREFETCHES:          0 PREFETCH ISSUED TO LOWER LEVEL:          0  ACCURACY: -nan
ITLB TIMELY PREFETCHES:          0 LATE PREFETCHES: 0 DROPPED PREFETCHES: 0
ITLB PREFETCHES SAME FILL-ORIGIN LEVEL: 0 DIFFERENT FILL-ORIGIN LEVEL: 0
ITLB AVERAGE MISS LATENCY: -nan cycles
ITLB RQ	ACCESS:  442385571	FORWARD:          0	MERGED:   43173359	TO_CACHE:  399212212

DTLB TOTAL     ACCESS:   32662848  HIT:   32658178  MISS:       4670  HIT %:    99.9857  MISS %:  0.0142976   MPKI: 0.02335
DTLB LOAD TRANSLATION ACCESS:   32662848  HIT:   32658178  MISS:       4670  HIT %:    99.9857  MISS %:  0.0142976   MPKI: 0.02335
DTLB PREFETCH  REQUESTED:          0  ISSUED:          0  USEFUL:          0  USELESS:          0
DTLB USEFUL LOAD PREFETCHES:          0 PREFETCH ISSUED TO LOWER LEVEL:          0  ACCURACY: -nan
DTLB TIMELY PREFETCHES:          0 LATE PREFETCHES: 0 DROPPED PREFETCHES: 0
DTLB PREFETCHES SAME FILL-ORIGIN LEVEL: 0 DIFFERENT FILL-ORIGIN LEVEL: 0
DTLB AVERAGE MISS LATENCY: 691.11 cycles
DTLB RQ	ACCESS:  437478208	FORWARD:          0	MERGED:   62795423	TO_CACHE:  374682785

STLB TOTAL     ACCESS:    5044639  HIT:    5039969  MISS:       4670  HIT %:    99.9074  MISS %:  0.0925735   MPKI: 0.02335
STLB LOAD TRANSLATION ACCESS:       4670  HIT:         62  MISS:       4608  HIT %:    1.32762  MISS %:    98.6724   MPKI: 0.02304
STLB TRANSLATION FROM L1D PREFETCHER ACCESS:    5039969  HIT:    5039907  MISS:         62  HIT %:    99.9988  MISS %: 0.00123017   MPKI: 0.00031
STLB PREFETCH  REQUESTED:          0  ISSUED:          0  USEFUL:      37415  USELESS:          0
STLB USEFUL LOAD PREFETCHES:      37415 PREFETCH ISSUED TO LOWER LEVEL:          0  ACCURACY: inf
STLB TIMELY PREFETCHES:      37415 LATE PREFETCHES: 120 DROPPED PREFETCHES: 442969
STLB PREFETCHES SAME FILL-ORIGIN LEVEL: 0 DIFFERENT FILL-ORIGIN LEVEL: 0
STLB AVERAGE MISS LATENCY: 2017.06 cycles
STLB RQ	ACCESS:  294589137	FORWARD:          0	MERGED:  231540642	TO_CACHE:   63048495

STLB Hit, L1D data hit: 0
STLB Hit, L2C data hit: 0
STLB Hit, LLC data hit: 0
STLB Hit, LLC data miss: 0
STLB STLB hints to L2: 0
L1D TOTAL     ACCESS:   50952121  HIT:   50653523  MISS:     298598  HIT %:     99.414  MISS %:   0.586036   MPKI: 1.49299
L1D LOAD      ACCESS:   24632687  HIT:   24623540  MISS:       9147  HIT %:    99.9629  MISS %:  0.0371336   MPKI: 0.045735
L1D RFO       ACCESS:   13218760  HIT:   13148427  MISS:      70333  HIT %:    99.4679  MISS %:    0.53207   MPKI: 0.351665
L1D PREFETCH  ACCESS:   13100674  HIT:   12881556  MISS:     219118  HIT %:    98.3274  MISS %:    1.67257   MPKI: 1.09559
L1D PREFETCH  REQUESTED:  617275688  ISSUED:  616767083  USEFUL:    2559254  USELESS:        151
L1D USEFUL LOAD PREFETCHES:    2559254 PREFETCH ISSUED TO LOWER LEVEL:  135349478  ACCURACY: 1.89085
L1D TIMELY PREFETCHES:    2559254 LATE PREFETCHES: 364 DROPPED PREFETCHES: 1350953
L1D PREFETCHES SAME FILL-ORIGIN LEVEL: 2559762 DIFFERENT FILL-ORIGIN LEVEL: 132789716
L1D AVERAGE MISS LATENCY: 5271.78 cycles
L1D RQ	ACCESS:  327846144	FORWARD:          0	MERGED:   45093602	TO_CACHE:  282545533
L1D WQ	ACCESS:  154932675	FORWARD:     207009	MERGED:          0	TO_CACHE:  154932675
L1D PQ	ACCESS:  322231522	FORWARD:          0	MERGED:   27695961	TO_CACHE:  294535561

L1D UNIQUE REGIONS ACCESSED: 0
L1D REGIONS CONFLICTS: 0
L1D Cross Page Prefetch Requests: 19915649
L1D Same Page Prefetch Requests: 311638436
L1D ROI Sum of L1D PQ occupancy: 3712767732
L1D PREFETCHES PUSHED FROM L2C: 0
L1I TOTAL     ACCESS:   38562593  HIT:   38562593  MISS:          0  HIT %:        100  MISS %:          0   MPKI: 0
L1I LOAD      ACCESS:   38562593  HIT:   38562593  MISS:          0  HIT %:        100  MISS %:          0   MPKI: 0
L1I PREFETCH  REQUESTED:          0  ISSUED:          0  USEFUL:          0  USELESS:          0
L1I USEFUL LOAD PREFETCHES:          0 PREFETCH ISSUED TO LOWER LEVEL:          0  ACCURACY: -nan
L1I TIMELY PREFETCHES:          0 LATE PREFETCHES: 0 DROPPED PREFETCHES: 0
L1I PREFETCHES SAME FILL-ORIGIN LEVEL: 0 DIFFERENT FILL-ORIGIN LEVEL: 0
L1I AVERAGE MISS LATENCY: -nan cycles
L1I RQ	ACCESS:  622368397	FORWARD:          0	MERGED:  179982826	TO_CACHE:  442385571

BTB TOTAL     ACCESS:   31209299  HIT:   30083989  MISS:    1125310  HIT %:    96.3943  MISS %:    3.60569   MPKI: 5.62655
BTB BRANCH_DIRECT_JUMP	ACCESS:    7856473  HIT:    7856473  MISS:          0
BTB BRANCH_INDIRECT	ACCESS:          0  HIT:          0  MISS:          0
BTB BRANCH_CONDITIONAL	ACCESS:   21102206  HIT:   21102206  MISS:          0
BTB BRANCH_DIRECT_CALL	ACCESS:    1125310  HIT:    1125310  MISS:          0
BTB BRANCH_INDIRECT_CALL	ACCESS:          0  HIT:          0  MISS:          0
BTB BRANCH_RETURN	ACCESS:    1125310  HIT:          0  MISS:    1125310
BTB BRANCH_OTHER ACCESS:          0  HIT:          0  MISS:          0

L2C TOTAL     ACCESS:   10810410  HIT:   10504780  MISS:     305630  HIT %:    97.1728  MISS %:    2.82718   MPKI: 1.52815
L2C LOAD      ACCESS:       8798  HIT:       5636  MISS:       3162  HIT %:      64.06  MISS %:      35.94   MPKI: 0.01581
L2C DATA LOAD MPKI: 0.01581
L2C INSTRUCTION LOAD MPKI: 0
L2C RFO       ACCESS:      70333  HIT:          0  MISS:      70333  HIT %:          0  MISS %:        100   MPKI: 0.351665
L2C PREFETCH  ACCESS:   10213498  HIT:    9988374  MISS:     225124  HIT %:    97.7958  MISS %:    2.20418   MPKI: 1.12562
L2C DATA PREFETCH MPKI: 1.12562
L2C INSTRUCTION PREFETCH MPKI: 0
L2C WRITEBACK ACCESS:      70321  HIT:      63992  MISS:       6329  HIT %:    90.9998  MISS %:    9.00016   MPKI: 0.031645
L2C LOAD TRANSLATION ACCESS:       4608  HIT:       4440  MISS:        168  HIT %:    96.3542  MISS %:    3.64583   MPKI: 0.00084
L2C TRANSLATION FROM L1D PREFETCHER ACCESS:     442852  HIT:     442338  MISS:        514  HIT %:    99.8839  MISS %:   0.116066   MPKI: 0.00257
L2C PREFETCH  REQUESTED:          0  ISSUED:          0  USEFUL:      61770  USELESS:    2560496
L2C USEFUL LOAD PREFETCHES:      61770 PREFETCH ISSUED TO LOWER LEVEL:    2615962  ACCURACY: 2.36127
L2C TIMELY PREFETCHES:      61770 LATE PREFETCHES: 80 DROPPED PREFETCHES: 0
L2C PREFETCHES SAME FILL-ORIGIN LEVEL: 2223682 DIFFERENT FILL-ORIGIN LEVEL: 0
L2C AVERAGE MISS LATENCY: 13772.1 cycles
L2C RQ	ACCESS:    1362819	FORWARD:          0	MERGED:          0	TO_CACHE:    1362819
L2C WQ	ACCESS:     806954	FORWARD:          0	MERGED:          0	TO_CACHE:     806954
L2C PQ	ACCESS:  135349478	FORWARD:          0	MERGED:      17959	TO_CACHE:  135331519

L2C Instructions Evicting Data 0
L2C Translations Evicting Data 8112
L2C Data Evicting Data 3418155
L2C Instructions Evicting Instructions 0
L2C Translations Evicting Instructions 0
L2C Data Evicting Instructions 0
L2C Instructions Evicting Translations 0
L2C Translations Evicting Translations 17
L2C Data Evicting Translations 7900
L2C Dense regions hint from L2: 0
PSCL5 TOTAL     ACCESS:     447460  HIT:     447460  MISS:          0  HIT %:        100  MISS %:          0   MPKI: 0
PSCL5 LOAD TRANSLATION ACCESS:       4608  HIT:       4608  MISS:          0  HIT %:        100  MISS %:          0   MPKI: 0
PSCL5 TRANSLATION FROM L1D PREFETCHER ACCESS:     442852  HIT:     442852  MISS:          0  HIT %:        100  MISS %:          0   MPKI: 0
PSCL5 PREFETCH  REQUESTED:          0  ISSUED:          0  USEFUL:          0  USELESS:          0
PSCL5 USEFUL LOAD PREFETCHES:          0 PREFETCH ISSUED TO LOWER LEVEL:          0  ACCURACY: -nan
PSCL5 TIMELY PREFETCHES:          0 LATE PREFETCHES: 0 DROPPED PREFETCHES: 0
PSCL5 PREFETCHES SAME FILL-ORIGIN LEVEL: 0 DIFFERENT FILL-ORIGIN LEVEL: 0

PSCL4 TOTAL     ACCESS:     447460  HIT:     447460  MISS:          0  HIT %:        100  MISS %:          0   MPKI: 0
PSCL4 LOAD TRANSLATION ACCESS:       4608  HIT:       4608  MISS:          0  HIT %:        100  MISS %:          0   MPKI: 0
PSCL4 TRANSLATION FROM L1D PREFETCHER ACCESS:     442852  HIT:     442852  MISS:          0  HIT %:        100  MISS %:          0   MPKI: 0
PSCL4 PREFETCH  REQUESTED:          0  ISSUED:          0  USEFUL:          0  USELESS:          0
PSCL4 USEFUL LOAD PREFETCHES:          0 PREFETCH ISSUED TO LOWER LEVEL:          0  ACCURACY: -nan
PSCL4 TIMELY PREFETCHES:          0 LATE PREFETCHES: 0 DROPPED PREFETCHES: 0
PSCL4 PREFETCHES SAME FILL-ORIGIN LEVEL: 0 DIFFERENT FILL-ORIGIN LEVEL: 0

PSCL3 TOTAL     ACCESS:     447460  HIT:     447460  MISS:          0  HIT %:        100  MISS %:          0   MPKI: 0
PSCL3 LOAD TRANSLATION ACCESS:       4608  HIT:       4608  MISS:          0  HIT %:        100  MISS %:          0   MPKI: 0
PSCL3 TRANSLATION FROM L1D PREFETCHER ACCESS:     442852  HIT:     442852  MISS:          0  HIT %:        100  MISS %:          0   MPKI: 0
PSCL3 PREFETCH  REQUESTED:          0  ISSUED:          0  USEFUL:          0  USELESS:          0
PSCL3 USEFUL LOAD PREFETCHES:          0 PREFETCH ISSUED TO LOWER LEVEL:          0  ACCURACY: -nan
PSCL3 TIMELY PREFETCHES:          0 LATE PREFETCHES: 0 DROPPED PREFETCHES: 0
PSCL3 PREFETCHES SAME FILL-ORIGIN LEVEL: 0 DIFFERENT FILL-ORIGIN LEVEL: 0

PSCL2 TOTAL     ACCESS:     446820  HIT:     446812  MISS:          8  HIT %:    99.9982  MISS %: 0.00179043   MPKI: 4e-05
PSCL2 LOAD TRANSLATION ACCESS:       4608  HIT:       4600  MISS:          8  HIT %:    99.8264  MISS %:   0.173611   MPKI: 4e-05
PSCL2 TRANSLATION FROM L1D PREFETCHER ACCESS:     442212  HIT:     442212  MISS:          0  HIT %:        100  MISS %:          0   MPKI: 0
PSCL2 PREFETCH  REQUESTED:          0  ISSUED:          0  USEFUL:          0  USELESS:          0
PSCL2 USEFUL LOAD PREFETCHES:          0 PREFETCH ISSUED TO LOWER LEVEL:          0  ACCURACY: -nan
PSCL2 TIMELY PREFETCHES:          0 LATE PREFETCHES: 0 DROPPED PREFETCHES: 0
PSCL2 PREFETCHES SAME FILL-ORIGIN LEVEL: 0 DIFFERENT FILL-ORIGIN LEVEL: 0

LLC TOTAL     ACCESS:     369544  HIT:      24051  MISS:     345493  HIT %:    6.50829  MISS %:    93.4917   MPKI: 1.72746
LLC LOAD      ACCESS:       3107  HIT:          0  MISS:       3107  HIT %:          0  MISS %:        100   MPKI: 0.015535
LLC RFO       ACCESS:      70333  HIT:          0  MISS:      70333  HIT %:          0  MISS %:        100   MPKI: 0.351665
LLC PREFETCH  ACCESS:     225179  HIT:          8  MISS:     225171  HIT %: 0.00355273  MISS %:    99.9964   MPKI: 1.12585
LLC WRITEBACK ACCESS:      70243  HIT:      23958  MISS:      46285  HIT %:    34.1073  MISS %:    65.8927   MPKI: 0.231425
LLC LOAD TRANSLATION ACCESS:        168  HIT:         23  MISS:        145  HIT %:    13.6905  MISS %:    86.3095   MPKI: 0.000725
LLC TRANSLATION FROM L1D PREFETCHER ACCESS:        514  HIT:         62  MISS:        452  HIT %:    12.0623  MISS %:    87.9377   MPKI: 0.00226
LLC PREFETCH  REQUESTED:          0  ISSUED:          0  USEFUL:       7379  USELESS:   27723219
LLC USEFUL LOAD PREFETCHES:       7379 PREFETCH ISSUED TO LOWER LEVEL:   27702817  ACCURACY: 0.0266363
LLC TIMELY PREFETCHES:       7379 LATE PREFETCHES: 0 DROPPED PREFETCHES: 0
LLC PREFETCHES SAME FILL-ORIGIN LEVEL: 0 DIFFERENT FILL-ORIGIN LEVEL: 0
LLC AVERAGE MISS LATENCY: 260274 cycles
LLC RQ	ACCESS:   62433793	FORWARD:          0	MERGED:          0	TO_CACHE:   62432584
LLC WQ	ACCESS:   58014974	FORWARD:       1209	MERGED:          0	TO_CACHE:   58014974
LLC PQ	ACCESS:   27709635	FORWARD:          0	MERGED:          0	TO_CACHE:   27709635

LLC Dense regions hint to LLC: 0

RAW hits: 2887488
Loads Generated: 31467286
Loads sent to L1D: 28579798
Stores Generated: 13503726
Stores sent to L1D: 13503728
Major fault: 0 Minor fault: 5878
Allocated PAGES: 564225

DRAM Statistics
 CHANNEL 0
 RQ ROW_BUFFER_HIT:   16201392  ROW_BUFFER_MISS:   71885666
 DBUS_CONGESTED:          0
 WQ ROW_BUFFER_HIT:    5271377  ROW_BUFFER_MISS:   50881315  FULL:     107706

 AVG_CONGESTED_CYCLE: -
 All warmup complete: 5
Channel 0 Bank busy for read cycles: 0
Channel 0 Bank busy for write cycles: 0
Channel 0
Rank 0
0banks busy for read cycles: 16786
0banks busy for write cycles: 0
1banks busy for read cycles: 7692413
1banks busy for write cycles: 5412499
2banks busy for read cycles: 12322521
2banks busy for write cycles: 5412499
3banks busy for read cycles: 18866193
3banks busy for write cycles: 5412496
4banks busy for read cycles: 30201062
4banks busy for write cycles: 5412507
5banks busy for read cycles: 60857291
5banks busy for write cycles: 5420615
6banks busy for read cycles: 154056916
6banks busy for write cycles: 6645962
7banks busy for read cycles: 423844658
7banks busy for write cycles: 94425722
8banks busy for read cycles: 1140430627
8banks busy for write cycles: 1328878051

CPU 0 Branch Prediction Accuracy: 98.5363% MPKI: 3.53579 Average ROB Occupancy at Mispredict: 67.4172
Branch types
NOT_BRANCH: 151685876 75.8429%
BRANCH_DIRECT_JUMP: 3899459 1.94973%
BRANCH_INDIRECT: 593469 0.296734%
BRANCH_CONDITIONAL: 31930514 15.9653%
BRANCH_DIRECT_CALL: 5117697 2.55885%
BRANCH_INDIRECT_CALL: 827496 0.413748%
BRANCH_RETURN: 5945199 2.9726%
BRANCH_OTHER: 0 0%


CPU 1 Branch Prediction Accuracy: 97.9664% MPKI: 0.308486 Average ROB Occupancy at Mispredict: 278.915
Branch types
NOT_BRANCH: 1384586587 98.4777%
BRANCH_DIRECT_JUMP: 2711355 0.192843%
BRANCH_INDIRECT: 0 0%
BRANCH_CONDITIONAL: 18691785 1.32944%
BRANCH_DIRECT_CALL: 2 1.42249e-07%
BRANCH_INDIRECT_CALL: 0 0%
BRANCH_RETURN: 2 1.42249e-07%
BRANCH_OTHER: 0 0%


CPU 2 Branch Prediction Accuracy: 92.7679% MPKI: 12.5623 Average ROB Occupancy at Mispredict: 26.4733
Branch types
NOT_BRANCH: 888022362 82.4892%
BRANCH_DIRECT_JUMP: 348 3.2326e-05%
BRANCH_INDIRECT: 8 7.43128e-07%
BRANCH_CONDITIONAL: 188508269 17.5107%
BRANCH_DIRECT_CALL: 120 1.11469e-05%
BRANCH_INDIRECT_CALL: 0 0%
BRANCH_RETURN: 116 1.07753e-05%
BRANCH_OTHER: 0 0%


CPU 3 Branch Prediction Accuracy: 97.5526% MPKI: 7.1058 Average ROB Occupancy at Mispredict: 53.8232
Branch types
NOT_BRANCH: 1627426423 70.9222%
BRANCH_DIRECT_JUMP: 90136618 3.9281%
BRANCH_INDIRECT: 0 0%
BRANCH_CONDITIONAL: 551279487 24.0244%
BRANCH_DIRECT_CALL: 12911057 0.562656%
BRANCH_INDIRECT_CALL: 0 0%
BRANCH_RETURN: 12911057 0.562656%
BRANCH_OTHER: 0 0%

DRAM PAGES: 1048576
Allocated PAGES: 564225
