
*** ChampSim Multicore Out-of-Order Simulator ***

Warmup Instructions: 50000000
Simulation Instructions: 200000000
Number of CPUs: 4
LLC sets: 8192
LLC ways: 16
Off-chip DRAM Size: 4096 MB Channels: 1 Width: 64-bit Data Rate: 6400 MT/s
CPU 0 runs ./traces/spec/471.omnetpp-188B.champsimtrace.xz
.xz
CPU 1 runs ./traces/spec/471.omnetpp-188B.champsimtrace.xz
.xz
CPU 2 runs ./traces/spec/471.omnetpp-188B.champsimtrace.xz
.xz
CPU 3 runs ./traces/spec/471.omnetpp-188B.champsimtrace.xz
.xz
BTB has LRU replacement policy
ITLB has LRU replacement policy
DTLB has LRU replacement policy
STLB has LRU replacement policy
L1I has LRU replacement policy
History Sets: 8
History Ways: 16
BERTI Size: 16
BERTI Stride Size: 8
L1D has LRU replacement policy
Initialize SRRIP state for L2C
Initialize DRRIP state for LLC
BTB has LRU replacement policy
ITLB has LRU replacement policy
DTLB has LRU replacement policy
STLB has LRU replacement policy
L1I has LRU replacement policy
History Sets: 8
History Ways: 16
BERTI Size: 16
BERTI Stride Size: 8
L1D has LRU replacement policy
Initialize SRRIP state for L2C
Initialize DRRIP state for LLC
BTB has LRU replacement policy
ITLB has LRU replacement policy
DTLB has LRU replacement policy
STLB has LRU replacement policy
L1I has LRU replacement policy
History Sets: 8
History Ways: 16
BERTI Size: 16
BERTI Stride Size: 8
L1D has LRU replacement policy
Initialize SRRIP state for L2C
Initialize DRRIP state for LLC
BTB has LRU replacement policy
ITLB has LRU replacement policy
DTLB has LRU replacement policy
STLB has LRU replacement policy
L1I has LRU replacement policy
History Sets: 8
History Ways: 16
BERTI Size: 16
BERTI Stride Size: 8
L1D has LRU replacement policy
Initialize SRRIP state for L2C
Initialize DRRIP state for LLC
Heartbeat CPU 0 instructions: 10000003 cycles: 3182397 heartbeat IPC: 3.14229 cumulative IPC: 3.14229 (Simulation time: 0 hr 3 min 34 sec) 
Heartbeat CPU 1 instructions: 10000003 cycles: 3185540 heartbeat IPC: 3.13919 cumulative IPC: 3.13919 (Simulation time: 0 hr 3 min 35 sec) 
Heartbeat CPU 2 instructions: 10000003 cycles: 3188327 heartbeat IPC: 3.13644 cumulative IPC: 3.13644 (Simulation time: 0 hr 3 min 35 sec) 
Heartbeat CPU 3 instructions: 10000003 cycles: 3190724 heartbeat IPC: 3.13409 cumulative IPC: 3.13409 (Simulation time: 0 hr 3 min 35 sec) 
Heartbeat CPU 0 instructions: 20000003 cycles: 6316171 heartbeat IPC: 3.19104 cumulative IPC: 3.16648 (Simulation time: 0 hr 7 min 32 sec) 
Heartbeat CPU 1 instructions: 20000003 cycles: 6320811 heartbeat IPC: 3.18952 cumulative IPC: 3.16415 (Simulation time: 0 hr 7 min 33 sec) 
Heartbeat CPU 2 instructions: 20000003 cycles: 6325049 heartbeat IPC: 3.18804 cumulative IPC: 3.16203 (Simulation time: 0 hr 7 min 33 sec) 
Heartbeat CPU 3 instructions: 20000003 cycles: 6329043 heartbeat IPC: 3.18642 cumulative IPC: 3.16004 (Simulation time: 0 hr 7 min 33 sec) 
Heartbeat CPU 0 instructions: 30000000 cycles: 9490685 heartbeat IPC: 3.15009 cumulative IPC: 3.16099 (Simulation time: 0 hr 11 min 19 sec) 
Heartbeat CPU 1 instructions: 30000000 cycles: 9497322 heartbeat IPC: 3.14811 cumulative IPC: 3.15879 (Simulation time: 0 hr 11 min 19 sec) 
Heartbeat CPU 2 instructions: 30000000 cycles: 9503880 heartbeat IPC: 3.14581 cumulative IPC: 3.15661 (Simulation time: 0 hr 11 min 20 sec) 
Heartbeat CPU 3 instructions: 30000000 cycles: 9511244 heartbeat IPC: 3.14248 cumulative IPC: 3.15416 (Simulation time: 0 hr 11 min 20 sec) 
Heartbeat CPU 0 instructions: 40000002 cycles: 12643388 heartbeat IPC: 3.17188 cumulative IPC: 3.16371 (Simulation time: 0 hr 15 min 21 sec) 
Heartbeat CPU 1 instructions: 40000002 cycles: 12651709 heartbeat IPC: 3.17019 cumulative IPC: 3.16163 (Simulation time: 0 hr 15 min 21 sec) 
Heartbeat CPU 2 instructions: 40000002 cycles: 12658830 heartbeat IPC: 3.16962 cumulative IPC: 3.15985 (Simulation time: 0 hr 15 min 22 sec) 
Heartbeat CPU 3 instructions: 40000002 cycles: 12668422 heartbeat IPC: 3.16739 cumulative IPC: 3.15746 (Simulation time: 0 hr 15 min 23 sec) 
Heartbeat CPU 0 instructions: 50000003 cycles: 15800859 heartbeat IPC: 3.16709 cumulative IPC: 3.16439 (Simulation time: 0 hr 19 min 23 sec) 
Heartbeat CPU 1 instructions: 50000003 cycles: 15811354 heartbeat IPC: 3.16491 cumulative IPC: 3.16228 (Simulation time: 0 hr 19 min 23 sec) 
Heartbeat CPU 2 instructions: 50000003 cycles: 15821484 heartbeat IPC: 3.1619 cumulative IPC: 3.16026 (Simulation time: 0 hr 19 min 24 sec) 
Heartbeat CPU 3 instructions: 50000003 cycles: 15832857 heartbeat IPC: 3.16012 cumulative IPC: 3.15799 (Simulation time: 0 hr 19 min 25 sec) 

Warmup complete CPU 0 instructions: 50088465 cycles: 15832857 (Simulation time: 0 hr 19 min 25 sec) 
Warmup complete CPU 1 instructions: 50049955 cycles: 15832857 (Simulation time: 0 hr 19 min 25 sec) 
Warmup complete CPU 2 instructions: 50025195 cycles: 15832857 (Simulation time: 0 hr 19 min 25 sec) 
Warmup complete CPU 3 instructions: 50000003 cycles: 15832857 (Simulation time: 0 hr 19 min 25 sec) 

Heartbeat CPU 0 instructions: 60000000 cycles: 56770603 heartbeat IPC: 0.244082 cumulative IPC: 0.242112 (Simulation time: 0 hr 24 min 40 sec) 
Heartbeat CPU 1 instructions: 60000000 cycles: 56911921 heartbeat IPC: 0.243306 cumulative IPC: 0.242217 (Simulation time: 0 hr 24 min 41 sec) 
Heartbeat CPU 2 instructions: 60000000 cycles: 57021917 heartbeat IPC: 0.242716 cumulative IPC: 0.242171 (Simulation time: 0 hr 24 min 43 sec) 
Heartbeat CPU 3 instructions: 60000000 cycles: 57023036 heartbeat IPC: 0.242776 cumulative IPC: 0.242776 (Simulation time: 0 hr 24 min 43 sec) 
Heartbeat CPU 0 instructions: 70000001 cycles: 97564629 heartbeat IPC: 0.245134 cumulative IPC: 0.243621 (Simulation time: 0 hr 30 min 29 sec) 
Heartbeat CPU 1 instructions: 70000001 cycles: 97860698 heartbeat IPC: 0.244208 cumulative IPC: 0.243211 (Simulation time: 0 hr 30 min 31 sec) 
Heartbeat CPU 3 instructions: 70000001 cycles: 97915705 heartbeat IPC: 0.244543 cumulative IPC: 0.243656 (Simulation time: 0 hr 30 min 31 sec) 
Heartbeat CPU 2 instructions: 70000001 cycles: 97997024 heartbeat IPC: 0.244051 cumulative IPC: 0.243108 (Simulation time: 0 hr 30 min 32 sec) 
Heartbeat CPU 0 instructions: 80000002 cycles: 143924462 heartbeat IPC: 0.215704 cumulative IPC: 0.233517 (Simulation time: 0 hr 36 min 8 sec) 
Heartbeat CPU 1 instructions: 80000002 cycles: 144194572 heartbeat IPC: 0.215825 cumulative IPC: 0.233325 (Simulation time: 0 hr 36 min 10 sec) 
Heartbeat CPU 3 instructions: 80000002 cycles: 144294764 heartbeat IPC: 0.215615 cumulative IPC: 0.233532 (Simulation time: 0 hr 36 min 10 sec) 
Heartbeat CPU 2 instructions: 80000002 cycles: 144331260 heartbeat IPC: 0.215823 cumulative IPC: 0.23327 (Simulation time: 0 hr 36 min 10 sec) 
Heartbeat CPU 0 instructions: 90000003 cycles: 188671849 heartbeat IPC: 0.223477 cumulative IPC: 0.230917 (Simulation time: 0 hr 41 min 38 sec) 
Heartbeat CPU 1 instructions: 90000003 cycles: 188966773 heartbeat IPC: 0.223353 cumulative IPC: 0.230747 (Simulation time: 0 hr 41 min 40 sec) 
Heartbeat CPU 3 instructions: 90000003 cycles: 189112584 heartbeat IPC: 0.223126 cumulative IPC: 0.230841 (Simulation time: 0 hr 41 min 42 sec) 
Heartbeat CPU 2 instructions: 90000003 cycles: 189188278 heartbeat IPC: 0.222931 cumulative IPC: 0.230595 (Simulation time: 0 hr 41 min 42 sec) 
Heartbeat CPU 0 instructions: 100000000 cycles: 233801320 heartbeat IPC: 0.221585 cumulative IPC: 0.228985 (Simulation time: 0 hr 47 min 19 sec) 
Heartbeat CPU 1 instructions: 100000000 cycles: 234224555 heartbeat IPC: 0.220956 cumulative IPC: 0.228718 (Simulation time: 0 hr 47 min 22 sec) 
Heartbeat CPU 3 instructions: 100000000 cycles: 234238127 heartbeat IPC: 0.221604 cumulative IPC: 0.228932 (Simulation time: 0 hr 47 min 22 sec) 
Heartbeat CPU 2 instructions: 100000000 cycles: 234422416 heartbeat IPC: 0.221072 cumulative IPC: 0.228624 (Simulation time: 0 hr 47 min 24 sec) 
Heartbeat CPU 0 instructions: 110000000 cycles: 278096402 heartbeat IPC: 0.225759 cumulative IPC: 0.22844 (Simulation time: 0 hr 52 min 57 sec) 
Heartbeat CPU 3 instructions: 110000000 cycles: 278537811 heartbeat IPC: 0.225735 cumulative IPC: 0.228393 (Simulation time: 0 hr 53 min 1 sec) 
Heartbeat CPU 1 instructions: 110000000 cycles: 278721412 heartbeat IPC: 0.224735 cumulative IPC: 0.228044 (Simulation time: 0 hr 53 min 3 sec) 
Heartbeat CPU 2 instructions: 110000000 cycles: 278916737 heartbeat IPC: 0.224748 cumulative IPC: 0.227968 (Simulation time: 0 hr 53 min 4 sec) 
Heartbeat CPU 0 instructions: 120000002 cycles: 324068973 heartbeat IPC: 0.217521 cumulative IPC: 0.226812 (Simulation time: 0 hr 58 min 35 sec) 
Heartbeat CPU 3 instructions: 120000002 cycles: 324641011 heartbeat IPC: 0.216905 cumulative IPC: 0.226678 (Simulation time: 0 hr 58 min 39 sec) 
Heartbeat CPU 1 instructions: 120000002 cycles: 324856401 heartbeat IPC: 0.216755 cumulative IPC: 0.226358 (Simulation time: 0 hr 58 min 41 sec) 
Heartbeat CPU 2 instructions: 120000002 cycles: 325103011 heartbeat IPC: 0.216515 cumulative IPC: 0.226258 (Simulation time: 0 hr 58 min 43 sec) 
Heartbeat CPU 0 instructions: 130000000 cycles: 365801050 heartbeat IPC: 0.239624 cumulative IPC: 0.228339 (Simulation time: 1 hr 3 min 37 sec) 
Heartbeat CPU 3 instructions: 130000000 cycles: 366358150 heartbeat IPC: 0.23971 cumulative IPC: 0.228229 (Simulation time: 1 hr 3 min 41 sec) 
Heartbeat CPU 1 instructions: 130000000 cycles: 366659178 heartbeat IPC: 0.239219 cumulative IPC: 0.227891 (Simulation time: 1 hr 3 min 43 sec) 
Heartbeat CPU 2 instructions: 130000000 cycles: 366918995 heartbeat IPC: 0.239143 cumulative IPC: 0.227793 (Simulation time: 1 hr 3 min 45 sec) 
Heartbeat CPU 0 instructions: 140000001 cycles: 412637069 heartbeat IPC: 0.213511 cumulative IPC: 0.226589 (Simulation time: 1 hr 9 min 19 sec) 
Heartbeat CPU 3 instructions: 140000001 cycles: 413188087 heartbeat IPC: 0.213539 cumulative IPC: 0.226498 (Simulation time: 1 hr 9 min 24 sec) 
Heartbeat CPU 1 instructions: 140000001 cycles: 413464666 heartbeat IPC: 0.21365 cumulative IPC: 0.226214 (Simulation time: 1 hr 9 min 27 sec) 
Heartbeat CPU 2 instructions: 140000001 cycles: 413725897 heartbeat IPC: 0.213644 cumulative IPC: 0.226128 (Simulation time: 1 hr 9 min 29 sec) 
Heartbeat CPU 0 instructions: 150000001 cycles: 454743459 heartbeat IPC: 0.237494 cumulative IPC: 0.227635 (Simulation time: 1 hr 14 min 46 sec) 
Heartbeat CPU 3 instructions: 150000001 cycles: 455309162 heartbeat IPC: 0.237411 cumulative IPC: 0.227544 (Simulation time: 1 hr 14 min 51 sec) 
Heartbeat CPU 1 instructions: 150000001 cycles: 455696369 heartbeat IPC: 0.236789 cumulative IPC: 0.22723 (Simulation time: 1 hr 14 min 55 sec) 
Heartbeat CPU 2 instructions: 150000001 cycles: 455931358 heartbeat IPC: 0.236936 cumulative IPC: 0.227165 (Simulation time: 1 hr 14 min 57 sec) 
Heartbeat CPU 0 instructions: 160000000 cycles: 496526045 heartbeat IPC: 0.239334 cumulative IPC: 0.228652 (Simulation time: 1 hr 20 min 6 sec) 
Heartbeat CPU 3 instructions: 160000000 cycles: 497190844 heartbeat IPC: 0.238768 cumulative IPC: 0.22852 (Simulation time: 1 hr 20 min 10 sec) 
Heartbeat CPU 1 instructions: 160000000 cycles: 497744074 heartbeat IPC: 0.237825 cumulative IPC: 0.228154 (Simulation time: 1 hr 20 min 13 sec) 
Heartbeat CPU 2 instructions: 160000000 cycles: 497968349 heartbeat IPC: 0.237886 cumulative IPC: 0.228099 (Simulation time: 1 hr 20 min 15 sec) 
Heartbeat CPU 0 instructions: 170000000 cycles: 544176796 heartbeat IPC: 0.20986 cumulative IPC: 0.226957 (Simulation time: 1 hr 25 min 50 sec) 
Heartbeat CPU 3 instructions: 170000000 cycles: 544958269 heartbeat IPC: 0.209348 cumulative IPC: 0.226789 (Simulation time: 1 hr 25 min 56 sec) 
Heartbeat CPU 1 instructions: 170000000 cycles: 545503269 heartbeat IPC: 0.209384 cumulative IPC: 0.226462 (Simulation time: 1 hr 26 min 0 sec) 
Heartbeat CPU 2 instructions: 170000000 cycles: 545748093 heartbeat IPC: 0.209294 cumulative IPC: 0.226404 (Simulation time: 1 hr 26 min 2 sec) 
Heartbeat CPU 0 instructions: 180000001 cycles: 588034032 heartbeat IPC: 0.228013 cumulative IPC: 0.227038 (Simulation time: 1 hr 31 min 23 sec) 
Heartbeat CPU 3 instructions: 180000000 cycles: 588878879 heartbeat IPC: 0.227684 cumulative IPC: 0.226858 (Simulation time: 1 hr 31 min 29 sec) 
Heartbeat CPU 1 instructions: 180000001 cycles: 589346736 heartbeat IPC: 0.228084 cumulative IPC: 0.226586 (Simulation time: 1 hr 31 min 33 sec) 
Heartbeat CPU 2 instructions: 180000001 cycles: 589725379 heartbeat IPC: 0.22739 cumulative IPC: 0.226479 (Simulation time: 1 hr 31 min 36 sec) 
Heartbeat CPU 0 instructions: 190000002 cycles: 630547382 heartbeat IPC: 0.23522 cumulative IPC: 0.227604 (Simulation time: 1 hr 36 min 39 sec) 
Heartbeat CPU 3 instructions: 190000002 cycles: 631605976 heartbeat IPC: 0.234044 cumulative IPC: 0.227356 (Simulation time: 1 hr 36 min 48 sec) 
Heartbeat CPU 1 instructions: 190000002 cycles: 632139509 heartbeat IPC: 0.233684 cumulative IPC: 0.227079 (Simulation time: 1 hr 36 min 52 sec) 
Heartbeat CPU 2 instructions: 190000002 cycles: 632592077 heartbeat IPC: 0.233281 cumulative IPC: 0.226952 (Simulation time: 1 hr 36 min 54 sec) 
Heartbeat CPU 0 instructions: 200000000 cycles: 674530844 heartbeat IPC: 0.227358 cumulative IPC: 0.227588 (Simulation time: 1 hr 41 min 57 sec) 
Heartbeat CPU 3 instructions: 200000000 cycles: 675585115 heartbeat IPC: 0.22738 cumulative IPC: 0.227358 (Simulation time: 1 hr 42 min 6 sec) 
Heartbeat CPU 1 instructions: 200000000 cycles: 676150161 heartbeat IPC: 0.227218 cumulative IPC: 0.227088 (Simulation time: 1 hr 42 min 11 sec) 
Heartbeat CPU 2 instructions: 200000000 cycles: 676706935 heartbeat IPC: 0.226681 cumulative IPC: 0.226934 (Simulation time: 1 hr 42 min 14 sec) 
Heartbeat CPU 0 instructions: 210000000 cycles: 722768068 heartbeat IPC: 0.207309 cumulative IPC: 0.226204 (Simulation time: 1 hr 47 min 30 sec) 
Heartbeat CPU 3 instructions: 210000000 cycles: 723891364 heartbeat IPC: 0.207013 cumulative IPC: 0.22597 (Simulation time: 1 hr 47 min 38 sec) 
Heartbeat CPU 1 instructions: 210000000 cycles: 724394854 heartbeat IPC: 0.207277 cumulative IPC: 0.225739 (Simulation time: 1 hr 47 min 41 sec) 
Heartbeat CPU 2 instructions: 210000000 cycles: 725027017 heartbeat IPC: 0.206953 cumulative IPC: 0.225573 (Simulation time: 1 hr 47 min 44 sec) 
Heartbeat CPU 0 instructions: 220000000 cycles: 769483080 heartbeat IPC: 0.214064 cumulative IPC: 0.225451 (Simulation time: 1 hr 52 min 55 sec) 
Heartbeat CPU 3 instructions: 220000000 cycles: 770748847 heartbeat IPC: 0.213413 cumulative IPC: 0.225191 (Simulation time: 1 hr 53 min 5 sec) 
Heartbeat CPU 1 instructions: 220000000 cycles: 771318971 heartbeat IPC: 0.21311 cumulative IPC: 0.224955 (Simulation time: 1 hr 53 min 9 sec) 
Heartbeat CPU 2 instructions: 220000000 cycles: 771867465 heartbeat IPC: 0.213491 cumulative IPC: 0.224824 (Simulation time: 1 hr 53 min 13 sec) 
Heartbeat CPU 0 instructions: 230000002 cycles: 820881945 heartbeat IPC: 0.194557 cumulative IPC: 0.223479 (Simulation time: 1 hr 58 min 36 sec) 
Heartbeat CPU 3 instructions: 230000002 cycles: 822160822 heartbeat IPC: 0.194507 cumulative IPC: 0.223234 (Simulation time: 1 hr 58 min 46 sec) 
Heartbeat CPU 1 instructions: 230000002 cycles: 822882977 heartbeat IPC: 0.193934 cumulative IPC: 0.222973 (Simulation time: 1 hr 58 min 51 sec) 
Heartbeat CPU 2 instructions: 230000002 cycles: 823411024 heartbeat IPC: 0.194011 cumulative IPC: 0.222857 (Simulation time: 1 hr 58 min 54 sec) 
Heartbeat CPU 0 instructions: 240000002 cycles: 865483317 heartbeat IPC: 0.224208 cumulative IPC: 0.223517 (Simulation time: 2 hr 3 min 56 sec) 
Heartbeat CPU 3 instructions: 240000002 cycles: 866779531 heartbeat IPC: 0.224121 cumulative IPC: 0.223281 (Simulation time: 2 hr 4 min 6 sec) 
Heartbeat CPU 1 instructions: 240000002 cycles: 867421447 heartbeat IPC: 0.224525 cumulative IPC: 0.223054 (Simulation time: 2 hr 4 min 11 sec) 
Heartbeat CPU 2 instructions: 240000002 cycles: 868027000 heartbeat IPC: 0.224135 cumulative IPC: 0.222924 (Simulation time: 2 hr 4 min 15 sec) 
Heartbeat CPU 0 instructions: 250000000 cycles: 911413384 heartbeat IPC: 0.217722 cumulative IPC: 0.22322 (Simulation time: 2 hr 9 min 18 sec) 
Finished CPU 0 instructions: 200000000 cycles: 895883380 cumulative IPC: 0.223243 (Simulation time: 2 hr 9 min 20 sec) 
Heartbeat CPU 3 instructions: 250000000 cycles: 912889270 heartbeat IPC: 0.216874 cumulative IPC: 0.222951 (Simulation time: 2 hr 9 min 29 sec) 
Finished CPU 3 instructions: 200000001 cycles: 897056426 cumulative IPC: 0.222951 (Simulation time: 2 hr 9 min 29 sec) 
Heartbeat CPU 1 instructions: 250000000 cycles: 913725563 heartbeat IPC: 0.215963 cumulative IPC: 0.222688 (Simulation time: 2 hr 9 min 35 sec) 
Finished CPU 1 instructions: 200000001 cycles: 898065824 cumulative IPC: 0.222701 (Simulation time: 2 hr 9 min 37 sec) 
Heartbeat CPU 2 instructions: 250000000 cycles: 914291377 heartbeat IPC: 0.216149 cumulative IPC: 0.222575 (Simulation time: 2 hr 9 min 39 sec) 
Finished CPU 2 instructions: 200000001 cycles: 898543338 cumulative IPC: 0.222582 (Simulation time: 2 hr 9 min 40 sec) 

ChampSim completed all CPUs

Total Simulation Statistics (not including warmup)

CPU 0 cumulative IPC: 0.223322 instructions: 200664255 cycles: 898543338
ITLB TOTAL     ACCESS:   34286127  HIT:   34214100  MISS:      72027  HIT %:    99.7899  MISS %:   0.210076   MPKI: 0.358943
ITLB LOAD      ACCESS:          0  HIT:          0  MISS:          0  HIT %:       -nan  MISS %:       -nan   MPKI: 0
ITLB RFO       ACCESS:          0  HIT:          0  MISS:          0  HIT %:       -nan  MISS %:       -nan   MPKI: 0
ITLB PREFETCH  ACCESS:          0  HIT:          0  MISS:          0  HIT %:       -nan  MISS %:       -nan   MPKI: 0
ITLB WRITEBACK ACCESS:          0  HIT:          0  MISS:          0  HIT %:       -nan  MISS %:       -nan   MPKI: 0
DTLB TOTAL     ACCESS:   56575617  HIT:   52705942  MISS:    3869675  HIT %:    93.1602  MISS %:    6.83983   MPKI: 19.2843
DTLB LOAD      ACCESS:          0  HIT:          0  MISS:          0  HIT %:       -nan  MISS %:       -nan   MPKI: 0
DTLB RFO       ACCESS:          0  HIT:          0  MISS:          0  HIT %:       -nan  MISS %:       -nan   MPKI: 0
DTLB PREFETCH  ACCESS:          0  HIT:          0  MISS:          0  HIT %:       -nan  MISS %:       -nan   MPKI: 0
DTLB WRITEBACK ACCESS:          0  HIT:          0  MISS:          0  HIT %:       -nan  MISS %:       -nan   MPKI: 0
STLB TOTAL     ACCESS:    4058104  HIT:    3094978  MISS:     963126  HIT %:    76.2666  MISS %:    23.7334   MPKI: 4.79969
STLB LOAD      ACCESS:          0  HIT:          0  MISS:          0  HIT %:       -nan  MISS %:       -nan   MPKI: 0
STLB RFO       ACCESS:          0  HIT:          0  MISS:          0  HIT %:       -nan  MISS %:       -nan   MPKI: 0
STLB PREFETCH  ACCESS:          0  HIT:          0  MISS:          0  HIT %:       -nan  MISS %:       -nan   MPKI: 0
STLB WRITEBACK ACCESS:          0  HIT:          0  MISS:          0  HIT %:       -nan  MISS %:       -nan   MPKI: 0
L1D TOTAL     ACCESS:   67881460  HIT:   62946378  MISS:    4935082  HIT %:    92.7299  MISS %:    7.27015   MPKI: 24.5937
L1D LOAD      ACCESS:   36465460  HIT:   32222619  MISS:    4242841  HIT %:    88.3648  MISS %:    11.6352   MPKI: 21.144
L1D RFO       ACCESS:   31393599  HIT:   30708955  MISS:     684644  HIT %:    97.8192  MISS %:    2.18084   MPKI: 3.41189
L1D PREFETCH  ACCESS:      22401  HIT:      14804  MISS:       7597  HIT %:    66.0863  MISS %:    33.9137   MPKI: 0.0378593
L1D WRITEBACK ACCESS:          0  HIT:          0  MISS:          0  HIT %:       -nan  MISS %:       -nan   MPKI: 0
L1I TOTAL     ACCESS:   38689323  HIT:   38684330  MISS:       4993  HIT %:    99.9871  MISS %:  0.0129054   MPKI: 0.0248824
L1I LOAD      ACCESS:   38689323  HIT:   38684330  MISS:       4993  HIT %:    99.9871  MISS %:  0.0129054   MPKI: 0.0248824
L1I RFO       ACCESS:          0  HIT:          0  MISS:          0  HIT %:       -nan  MISS %:       -nan   MPKI: 0
L1I PREFETCH  ACCESS:          0  HIT:          0  MISS:          0  HIT %:       -nan  MISS %:       -nan   MPKI: 0
L1I WRITEBACK ACCESS:          0  HIT:          0  MISS:          0  HIT %:       -nan  MISS %:       -nan   MPKI: 0
L2C TOTAL     ACCESS:    8304005  HIT:    3339309  MISS:    4964696  HIT %:    40.2132  MISS %:    59.7868   MPKI: 24.7413
L2C LOAD      ACCESS:    4247732  HIT:     611425  MISS:    3636307  HIT %:    14.3942  MISS %:    85.6058   MPKI: 18.1213
L2C RFO       ACCESS:     684643  HIT:      49031  MISS:     635612  HIT %:    7.16154  MISS %:    92.8385   MPKI: 3.16754
L2C PREFETCH  ACCESS:     168038  HIT:      27705  MISS:     140333  HIT %:    16.4873  MISS %:    83.5127   MPKI: 0.699342
L2C WRITEBACK ACCESS:    2121882  HIT:    1970973  MISS:     150909  HIT %:     92.888  MISS %:    7.11204   MPKI: 0.752047
PSCL5 TOTAL     ACCESS:     999286  HIT:     999286  MISS:          0  HIT %:        100  MISS %:          0   MPKI: 0
PSCL5 LOAD      ACCESS:          0  HIT:          0  MISS:          0  HIT %:       -nan  MISS %:       -nan   MPKI: 0
PSCL5 RFO       ACCESS:          0  HIT:          0  MISS:          0  HIT %:       -nan  MISS %:       -nan   MPKI: 0
PSCL5 PREFETCH  ACCESS:          0  HIT:          0  MISS:          0  HIT %:       -nan  MISS %:       -nan   MPKI: 0
PSCL5 WRITEBACK ACCESS:          0  HIT:          0  MISS:          0  HIT %:       -nan  MISS %:       -nan   MPKI: 0
PSCL4 TOTAL     ACCESS:     999286  HIT:     999286  MISS:          0  HIT %:        100  MISS %:          0   MPKI: 0
PSCL4 LOAD      ACCESS:          0  HIT:          0  MISS:          0  HIT %:       -nan  MISS %:       -nan   MPKI: 0
PSCL4 RFO       ACCESS:          0  HIT:          0  MISS:          0  HIT %:       -nan  MISS %:       -nan   MPKI: 0
PSCL4 PREFETCH  ACCESS:          0  HIT:          0  MISS:          0  HIT %:       -nan  MISS %:       -nan   MPKI: 0
PSCL4 WRITEBACK ACCESS:          0  HIT:          0  MISS:          0  HIT %:       -nan  MISS %:       -nan   MPKI: 0
PSCL3 TOTAL     ACCESS:     999286  HIT:     999286  MISS:          0  HIT %:        100  MISS %:          0   MPKI: 0
PSCL3 LOAD      ACCESS:          0  HIT:          0  MISS:          0  HIT %:       -nan  MISS %:       -nan   MPKI: 0
PSCL3 RFO       ACCESS:          0  HIT:          0  MISS:          0  HIT %:       -nan  MISS %:       -nan   MPKI: 0
PSCL3 PREFETCH  ACCESS:          0  HIT:          0  MISS:          0  HIT %:       -nan  MISS %:       -nan   MPKI: 0
PSCL3 WRITEBACK ACCESS:          0  HIT:          0  MISS:          0  HIT %:       -nan  MISS %:       -nan   MPKI: 0
PSCL2 TOTAL     ACCESS:     968374  HIT:     916859  MISS:      51515  HIT %:    94.6803  MISS %:    5.31974   MPKI: 0.256722
PSCL2 LOAD      ACCESS:          0  HIT:          0  MISS:          0  HIT %:       -nan  MISS %:       -nan   MPKI: 0
PSCL2 RFO       ACCESS:          0  HIT:          0  MISS:          0  HIT %:       -nan  MISS %:       -nan   MPKI: 0
PSCL2 PREFETCH  ACCESS:          0  HIT:          0  MISS:          0  HIT %:       -nan  MISS %:       -nan   MPKI: 0
PSCL2 WRITEBACK ACCESS:          0  HIT:          0  MISS:          0  HIT %:       -nan  MISS %:       -nan   MPKI: 0
LLC TOTAL     ACCESS:    6664409  HIT:    2952959  MISS:    3711450  HIT %:    44.3094  MISS %:    55.6906   MPKI: 18.4958
LLC LOAD      ACCESS:    3635031  HIT:     734158  MISS:    2900873  HIT %:    20.1967  MISS %:    79.8033   MPKI: 14.4564
LLC RFO       ACCESS:     635534  HIT:     117336  MISS:     518198  HIT %:    18.4626  MISS %:    81.5374   MPKI: 2.58241
LLC PREFETCH  ACCESS:     141682  HIT:       6893  MISS:     134789  HIT %:    4.86512  MISS %:    95.1349   MPKI: 0.671714
LLC WRITEBACK ACCESS:    1850627  HIT:    1764807  MISS:      85820  HIT %:    95.3627  MISS %:    4.63735   MPKI: 0.42768

RAW hits: 4701028
Loads Generated: 60002010
Loads sent to L1D: 55300982
Stores Generated: 33771610
Stores sent to L1D: 33771595

CPU 1 cumulative IPC: 0.222742 instructions: 200143466 cycles: 898543338
ITLB TOTAL     ACCESS:   34196466  HIT:   34124565  MISS:      71901  HIT %:    99.7897  MISS %:   0.210259   MPKI: 0.359247
ITLB LOAD      ACCESS:          0  HIT:          0  MISS:          0  HIT %:       -nan  MISS %:       -nan   MPKI: 0
ITLB RFO       ACCESS:          0  HIT:          0  MISS:          0  HIT %:       -nan  MISS %:       -nan   MPKI: 0
ITLB PREFETCH  ACCESS:          0  HIT:          0  MISS:          0  HIT %:       -nan  MISS %:       -nan   MPKI: 0
ITLB WRITEBACK ACCESS:          0  HIT:          0  MISS:          0  HIT %:       -nan  MISS %:       -nan   MPKI: 0
DTLB TOTAL     ACCESS:   56430828  HIT:   52573010  MISS:    3857818  HIT %:    93.1636  MISS %:    6.83637   MPKI: 19.2753
DTLB LOAD      ACCESS:          0  HIT:          0  MISS:          0  HIT %:       -nan  MISS %:       -nan   MPKI: 0
DTLB RFO       ACCESS:          0  HIT:          0  MISS:          0  HIT %:       -nan  MISS %:       -nan   MPKI: 0
DTLB PREFETCH  ACCESS:          0  HIT:          0  MISS:          0  HIT %:       -nan  MISS %:       -nan   MPKI: 0
DTLB WRITEBACK ACCESS:          0  HIT:          0  MISS:          0  HIT %:       -nan  MISS %:       -nan   MPKI: 0
STLB TOTAL     ACCESS:    4043396  HIT:    3082055  MISS:     961341  HIT %:    76.2244  MISS %:    23.7756   MPKI: 4.80326
STLB LOAD      ACCESS:          0  HIT:          0  MISS:          0  HIT %:       -nan  MISS %:       -nan   MPKI: 0
STLB RFO       ACCESS:          0  HIT:          0  MISS:          0  HIT %:       -nan  MISS %:       -nan   MPKI: 0
STLB PREFETCH  ACCESS:          0  HIT:          0  MISS:          0  HIT %:       -nan  MISS %:       -nan   MPKI: 0
STLB WRITEBACK ACCESS:          0  HIT:          0  MISS:          0  HIT %:       -nan  MISS %:       -nan   MPKI: 0
L1D TOTAL     ACCESS:   67704278  HIT:   62782424  MISS:    4921854  HIT %:    92.7304  MISS %:    7.26964   MPKI: 24.5916
L1D LOAD      ACCESS:   36363553  HIT:   32132839  MISS:    4230714  HIT %:    88.3655  MISS %:    11.6345   MPKI: 21.1384
L1D RFO       ACCESS:   31319387  HIT:   30635308  MISS:     684079  HIT %:    97.8158  MISS %:     2.1842   MPKI: 3.41794
L1D PREFETCH  ACCESS:      21338  HIT:      14277  MISS:       7061  HIT %:    66.9088  MISS %:    33.0912   MPKI: 0.0352797
L1D WRITEBACK ACCESS:          0  HIT:          0  MISS:          0  HIT %:       -nan  MISS %:       -nan   MPKI: 0
L1I TOTAL     ACCESS:   38587597  HIT:   38582602  MISS:       4995  HIT %:    99.9871  MISS %:  0.0129446   MPKI: 0.0249571
L1I LOAD      ACCESS:   38587597  HIT:   38582602  MISS:       4995  HIT %:    99.9871  MISS %:  0.0129446   MPKI: 0.0249571
L1I RFO       ACCESS:          0  HIT:          0  MISS:          0  HIT %:       -nan  MISS %:       -nan   MPKI: 0
L1I PREFETCH  ACCESS:          0  HIT:          0  MISS:          0  HIT %:       -nan  MISS %:       -nan   MPKI: 0
L1I WRITEBACK ACCESS:          0  HIT:          0  MISS:          0  HIT %:       -nan  MISS %:       -nan   MPKI: 0
L2C TOTAL     ACCESS:    8277554  HIT:    3320564  MISS:    4956990  HIT %:    40.1153  MISS %:    59.8847   MPKI: 24.7672
L2C LOAD      ACCESS:    4235609  HIT:     608457  MISS:    3627152  HIT %:    14.3653  MISS %:    85.6347   MPKI: 18.1228
L2C RFO       ACCESS:     684079  HIT:      48809  MISS:     635270  HIT %:    7.13499  MISS %:     92.865   MPKI: 3.17407
L2C PREFETCH  ACCESS:     163830  HIT:      26387  MISS:     137443  HIT %:    16.1063  MISS %:    83.8937   MPKI: 0.686722
L2C WRITEBACK ACCESS:    2116221  HIT:    1961877  MISS:     154344  HIT %:    92.7066  MISS %:    7.29338   MPKI: 0.771167
PSCL5 TOTAL     ACCESS:     996683  HIT:     996683  MISS:          0  HIT %:        100  MISS %:          0   MPKI: 0
PSCL5 LOAD      ACCESS:          0  HIT:          0  MISS:          0  HIT %:       -nan  MISS %:       -nan   MPKI: 0
PSCL5 RFO       ACCESS:          0  HIT:          0  MISS:          0  HIT %:       -nan  MISS %:       -nan   MPKI: 0
PSCL5 PREFETCH  ACCESS:          0  HIT:          0  MISS:          0  HIT %:       -nan  MISS %:       -nan   MPKI: 0
PSCL5 WRITEBACK ACCESS:          0  HIT:          0  MISS:          0  HIT %:       -nan  MISS %:       -nan   MPKI: 0
PSCL4 TOTAL     ACCESS:     996683  HIT:     996683  MISS:          0  HIT %:        100  MISS %:          0   MPKI: 0
PSCL4 LOAD      ACCESS:          0  HIT:          0  MISS:          0  HIT %:       -nan  MISS %:       -nan   MPKI: 0
PSCL4 RFO       ACCESS:          0  HIT:          0  MISS:          0  HIT %:       -nan  MISS %:       -nan   MPKI: 0
PSCL4 PREFETCH  ACCESS:          0  HIT:          0  MISS:          0  HIT %:       -nan  MISS %:       -nan   MPKI: 0
PSCL4 WRITEBACK ACCESS:          0  HIT:          0  MISS:          0  HIT %:       -nan  MISS %:       -nan   MPKI: 0
PSCL3 TOTAL     ACCESS:     996683  HIT:     996683  MISS:          0  HIT %:        100  MISS %:          0   MPKI: 0
PSCL3 LOAD      ACCESS:          0  HIT:          0  MISS:          0  HIT %:       -nan  MISS %:       -nan   MPKI: 0
PSCL3 RFO       ACCESS:          0  HIT:          0  MISS:          0  HIT %:       -nan  MISS %:       -nan   MPKI: 0
PSCL3 PREFETCH  ACCESS:          0  HIT:          0  MISS:          0  HIT %:       -nan  MISS %:       -nan   MPKI: 0
PSCL3 WRITEBACK ACCESS:          0  HIT:          0  MISS:          0  HIT %:       -nan  MISS %:       -nan   MPKI: 0
PSCL2 TOTAL     ACCESS:     967102  HIT:     915548  MISS:      51554  HIT %:    94.6692  MISS %:    5.33077   MPKI: 0.257585
PSCL2 LOAD      ACCESS:          0  HIT:          0  MISS:          0  HIT %:       -nan  MISS %:       -nan   MPKI: 0
PSCL2 RFO       ACCESS:          0  HIT:          0  MISS:          0  HIT %:       -nan  MISS %:       -nan   MPKI: 0
PSCL2 PREFETCH  ACCESS:          0  HIT:          0  MISS:          0  HIT %:       -nan  MISS %:       -nan   MPKI: 0
PSCL2 WRITEBACK ACCESS:          0  HIT:          0  MISS:          0  HIT %:       -nan  MISS %:       -nan   MPKI: 0
LLC TOTAL     ACCESS:    6650509  HIT:    2941195  MISS:    3709314  HIT %:    44.2251  MISS %:    55.7749   MPKI: 18.5333
LLC LOAD      ACCESS:    3625832  HIT:     725014  MISS:    2900818  HIT %:    19.9958  MISS %:    80.0042   MPKI: 14.4937
LLC RFO       ACCESS:     635187  HIT:     118374  MISS:     516813  HIT %:    18.6361  MISS %:    81.3639   MPKI: 2.58221
LLC PREFETCH  ACCESS:     138842  HIT:       7102  MISS:     131740  HIT %:    5.11517  MISS %:    94.8848   MPKI: 0.658228
LLC WRITEBACK ACCESS:    1847867  HIT:    1762710  MISS:      85157  HIT %:    95.3916  MISS %:    4.60839   MPKI: 0.42548

RAW hits: 4686919
Loads Generated: 59831294
Loads sent to L1D: 55144376
Stores Generated: 33694836
Stores sent to L1D: 33694850

CPU 2 cumulative IPC: 0.222582 instructions: 200000001 cycles: 898543338
ITLB TOTAL     ACCESS:   34172117  HIT:   34100211  MISS:      71906  HIT %:    99.7896  MISS %:   0.210423   MPKI: 0.35953
ITLB LOAD      ACCESS:          0  HIT:          0  MISS:          0  HIT %:       -nan  MISS %:       -nan   MPKI: 0
ITLB RFO       ACCESS:          0  HIT:          0  MISS:          0  HIT %:       -nan  MISS %:       -nan   MPKI: 0
ITLB PREFETCH  ACCESS:          0  HIT:          0  MISS:          0  HIT %:       -nan  MISS %:       -nan   MPKI: 0
ITLB WRITEBACK ACCESS:          0  HIT:          0  MISS:          0  HIT %:       -nan  MISS %:       -nan   MPKI: 0
DTLB TOTAL     ACCESS:   56390219  HIT:   52536061  MISS:    3854158  HIT %:    93.1652  MISS %:     6.8348   MPKI: 19.2708
DTLB LOAD      ACCESS:          0  HIT:          0  MISS:          0  HIT %:       -nan  MISS %:       -nan   MPKI: 0
DTLB RFO       ACCESS:          0  HIT:          0  MISS:          0  HIT %:       -nan  MISS %:       -nan   MPKI: 0
DTLB PREFETCH  ACCESS:          0  HIT:          0  MISS:          0  HIT %:       -nan  MISS %:       -nan   MPKI: 0
DTLB WRITEBACK ACCESS:          0  HIT:          0  MISS:          0  HIT %:       -nan  MISS %:       -nan   MPKI: 0
STLB TOTAL     ACCESS:    4041501  HIT:    3080467  MISS:     961034  HIT %:    76.2209  MISS %:    23.7791   MPKI: 4.80517
STLB LOAD      ACCESS:          0  HIT:          0  MISS:          0  HIT %:       -nan  MISS %:       -nan   MPKI: 0
STLB RFO       ACCESS:          0  HIT:          0  MISS:          0  HIT %:       -nan  MISS %:       -nan   MPKI: 0
STLB PREFETCH  ACCESS:          0  HIT:          0  MISS:          0  HIT %:       -nan  MISS %:       -nan   MPKI: 0
STLB WRITEBACK ACCESS:          0  HIT:          0  MISS:          0  HIT %:       -nan  MISS %:       -nan   MPKI: 0
L1D TOTAL     ACCESS:   67657287  HIT:   62738504  MISS:    4918783  HIT %:    92.7299  MISS %:    7.27015   MPKI: 24.5939
L1D LOAD      ACCESS:   36335645  HIT:   32108057  MISS:    4227588  HIT %:    88.3652  MISS %:    11.6348   MPKI: 21.1379
L1D RFO       ACCESS:   31299557  HIT:   30615779  MISS:     683778  HIT %:    97.8154  MISS %:    2.18463   MPKI: 3.41889
L1D PREFETCH  ACCESS:      22085  HIT:      14668  MISS:       7417  HIT %:    66.4161  MISS %:    33.5839   MPKI: 0.037085
L1D WRITEBACK ACCESS:          0  HIT:          0  MISS:          0  HIT %:       -nan  MISS %:       -nan   MPKI: 0
L1I TOTAL     ACCESS:   38559833  HIT:   38554838  MISS:       4995  HIT %:     99.987  MISS %:  0.0129539   MPKI: 0.024975
L1I LOAD      ACCESS:   38559833  HIT:   38554838  MISS:       4995  HIT %:     99.987  MISS %:  0.0129539   MPKI: 0.024975
L1I RFO       ACCESS:          0  HIT:          0  MISS:          0  HIT %:       -nan  MISS %:       -nan   MPKI: 0
L1I PREFETCH  ACCESS:          0  HIT:          0  MISS:          0  HIT %:       -nan  MISS %:       -nan   MPKI: 0
L1I WRITEBACK ACCESS:          0  HIT:          0  MISS:          0  HIT %:       -nan  MISS %:       -nan   MPKI: 0
L2C TOTAL     ACCESS:    8277238  HIT:    3324466  MISS:    4952772  HIT %:     40.164  MISS %:     59.836   MPKI: 24.7639
L2C LOAD      ACCESS:    4232488  HIT:     609447  MISS:    3623041  HIT %:    14.3993  MISS %:    85.6007   MPKI: 18.1152
L2C RFO       ACCESS:     683778  HIT:      49061  MISS:     634717  HIT %:    7.17499  MISS %:     92.825   MPKI: 3.17358
L2C PREFETCH  ACCESS:     167669  HIT:      28004  MISS:     139665  HIT %:     16.702  MISS %:     83.298   MPKI: 0.698325
L2C WRITEBACK ACCESS:    2115017  HIT:    1961307  MISS:     153710  HIT %:    92.7324  MISS %:    7.26755   MPKI: 0.76855
PSCL5 TOTAL     ACCESS:     996661  HIT:     996661  MISS:          0  HIT %:        100  MISS %:          0   MPKI: 0
PSCL5 LOAD      ACCESS:          0  HIT:          0  MISS:          0  HIT %:       -nan  MISS %:       -nan   MPKI: 0
PSCL5 RFO       ACCESS:          0  HIT:          0  MISS:          0  HIT %:       -nan  MISS %:       -nan   MPKI: 0
PSCL5 PREFETCH  ACCESS:          0  HIT:          0  MISS:          0  HIT %:       -nan  MISS %:       -nan   MPKI: 0
PSCL5 WRITEBACK ACCESS:          0  HIT:          0  MISS:          0  HIT %:       -nan  MISS %:       -nan   MPKI: 0
PSCL4 TOTAL     ACCESS:     996661  HIT:     996661  MISS:          0  HIT %:        100  MISS %:          0   MPKI: 0
PSCL4 LOAD      ACCESS:          0  HIT:          0  MISS:          0  HIT %:       -nan  MISS %:       -nan   MPKI: 0
PSCL4 RFO       ACCESS:          0  HIT:          0  MISS:          0  HIT %:       -nan  MISS %:       -nan   MPKI: 0
PSCL4 PREFETCH  ACCESS:          0  HIT:          0  MISS:          0  HIT %:       -nan  MISS %:       -nan   MPKI: 0
PSCL4 WRITEBACK ACCESS:          0  HIT:          0  MISS:          0  HIT %:       -nan  MISS %:       -nan   MPKI: 0
PSCL3 TOTAL     ACCESS:     996661  HIT:     996661  MISS:          0  HIT %:        100  MISS %:          0   MPKI: 0
PSCL3 LOAD      ACCESS:          0  HIT:          0  MISS:          0  HIT %:       -nan  MISS %:       -nan   MPKI: 0
PSCL3 RFO       ACCESS:          0  HIT:          0  MISS:          0  HIT %:       -nan  MISS %:       -nan   MPKI: 0
PSCL3 PREFETCH  ACCESS:          0  HIT:          0  MISS:          0  HIT %:       -nan  MISS %:       -nan   MPKI: 0
PSCL3 WRITEBACK ACCESS:          0  HIT:          0  MISS:          0  HIT %:       -nan  MISS %:       -nan   MPKI: 0
PSCL2 TOTAL     ACCESS:     966361  HIT:     915033  MISS:      51328  HIT %:    94.6885  MISS %:    5.31147   MPKI: 0.25664
PSCL2 LOAD      ACCESS:          0  HIT:          0  MISS:          0  HIT %:       -nan  MISS %:       -nan   MPKI: 0
PSCL2 RFO       ACCESS:          0  HIT:          0  MISS:          0  HIT %:       -nan  MISS %:       -nan   MPKI: 0
PSCL2 PREFETCH  ACCESS:          0  HIT:          0  MISS:          0  HIT %:       -nan  MISS %:       -nan   MPKI: 0
PSCL2 WRITEBACK ACCESS:          0  HIT:          0  MISS:          0  HIT %:       -nan  MISS %:       -nan   MPKI: 0
LLC TOTAL     ACCESS:    6643564  HIT:    2933225  MISS:    3710339  HIT %:    44.1514  MISS %:    55.8486   MPKI: 18.5517
LLC LOAD      ACCESS:    3621750  HIT:     721313  MISS:    2900437  HIT %:    19.9161  MISS %:    80.0839   MPKI: 14.5022
LLC RFO       ACCESS:     634627  HIT:     118243  MISS:     516384  HIT %:    18.6319  MISS %:    81.3681   MPKI: 2.58192
LLC PREFETCH  ACCESS:     141043  HIT:       7106  MISS:     133937  HIT %:    5.03818  MISS %:    94.9618   MPKI: 0.669685
LLC WRITEBACK ACCESS:    1844505  HIT:    1759673  MISS:      84832  HIT %:    95.4008  MISS %:    4.59917   MPKI: 0.42416

RAW hits: 4684863
Loads Generated: 59785341
Loads sent to L1D: 55100476
Stores Generated: 33675222
Stores sent to L1D: 33675222

CPU 3 cumulative IPC: 0.223066 instructions: 200434889 cycles: 898543338
ITLB TOTAL     ACCESS:   34245450  HIT:   34173489  MISS:      71961  HIT %:    99.7899  MISS %:   0.210133   MPKI: 0.359024
ITLB LOAD      ACCESS:          0  HIT:          0  MISS:          0  HIT %:       -nan  MISS %:       -nan   MPKI: 0
ITLB RFO       ACCESS:          0  HIT:          0  MISS:          0  HIT %:       -nan  MISS %:       -nan   MPKI: 0
ITLB PREFETCH  ACCESS:          0  HIT:          0  MISS:          0  HIT %:       -nan  MISS %:       -nan   MPKI: 0
ITLB WRITEBACK ACCESS:          0  HIT:          0  MISS:          0  HIT %:       -nan  MISS %:       -nan   MPKI: 0
DTLB TOTAL     ACCESS:   56508928  HIT:   52645370  MISS:    3863558  HIT %:    93.1629  MISS %:    6.83708   MPKI: 19.2759
DTLB LOAD      ACCESS:          0  HIT:          0  MISS:          0  HIT %:       -nan  MISS %:       -nan   MPKI: 0
DTLB RFO       ACCESS:          0  HIT:          0  MISS:          0  HIT %:       -nan  MISS %:       -nan   MPKI: 0
DTLB PREFETCH  ACCESS:          0  HIT:          0  MISS:          0  HIT %:       -nan  MISS %:       -nan   MPKI: 0
DTLB WRITEBACK ACCESS:          0  HIT:          0  MISS:          0  HIT %:       -nan  MISS %:       -nan   MPKI: 0
STLB TOTAL     ACCESS:    4052352  HIT:    3089622  MISS:     962730  HIT %:    76.2427  MISS %:    23.7573   MPKI: 4.80321
STLB LOAD      ACCESS:          0  HIT:          0  MISS:          0  HIT %:       -nan  MISS %:       -nan   MPKI: 0
STLB RFO       ACCESS:          0  HIT:          0  MISS:          0  HIT %:       -nan  MISS %:       -nan   MPKI: 0
STLB PREFETCH  ACCESS:          0  HIT:          0  MISS:          0  HIT %:       -nan  MISS %:       -nan   MPKI: 0
STLB WRITEBACK ACCESS:          0  HIT:          0  MISS:          0  HIT %:       -nan  MISS %:       -nan   MPKI: 0
L1D TOTAL     ACCESS:   67797728  HIT:   62869709  MISS:    4928019  HIT %:    92.7313  MISS %:    7.26871   MPKI: 24.5866
L1D LOAD      ACCESS:   36413504  HIT:   32177974  MISS:    4235530  HIT %:    88.3682  MISS %:    11.6318   MPKI: 21.1317
L1D RFO       ACCESS:   31362377  HIT:   30677446  MISS:     684931  HIT %:    97.8161  MISS %:    2.18393   MPKI: 3.41722
L1D PREFETCH  ACCESS:      21847  HIT:      14289  MISS:       7558  HIT %:    65.4049  MISS %:    34.5951   MPKI: 0.037708
L1D WRITEBACK ACCESS:          0  HIT:          0  MISS:          0  HIT %:       -nan  MISS %:       -nan   MPKI: 0
L1I TOTAL     ACCESS:   38643191  HIT:   38638196  MISS:       4995  HIT %:    99.9871  MISS %:   0.012926   MPKI: 0.0249208
L1I LOAD      ACCESS:   38643191  HIT:   38638196  MISS:       4995  HIT %:    99.9871  MISS %:   0.012926   MPKI: 0.0249208
L1I RFO       ACCESS:          0  HIT:          0  MISS:          0  HIT %:       -nan  MISS %:       -nan   MPKI: 0
L1I PREFETCH  ACCESS:          0  HIT:          0  MISS:          0  HIT %:       -nan  MISS %:       -nan   MPKI: 0
L1I WRITEBACK ACCESS:          0  HIT:          0  MISS:          0  HIT %:       -nan  MISS %:       -nan   MPKI: 0
L2C TOTAL     ACCESS:    8293803  HIT:    3329388  MISS:    4964415  HIT %:    40.1431  MISS %:    59.8569   MPKI: 24.7682
L2C LOAD      ACCESS:    4240423  HIT:     609651  MISS:    3630772  HIT %:    14.3771  MISS %:    85.6229   MPKI: 18.1145
L2C RFO       ACCESS:     684931  HIT:      48995  MISS:     635936  HIT %:    7.15328  MISS %:    92.8467   MPKI: 3.17278
L2C PREFETCH  ACCESS:     169092  HIT:      28213  MISS:     140879  HIT %:     16.685  MISS %:     83.315   MPKI: 0.702867
L2C WRITEBACK ACCESS:    2119012  HIT:    1966285  MISS:     152727  HIT %:    92.7925  MISS %:    7.20746   MPKI: 0.761978
PSCL5 TOTAL     ACCESS:     998431  HIT:     998431  MISS:          0  HIT %:        100  MISS %:          0   MPKI: 0
PSCL5 LOAD      ACCESS:          0  HIT:          0  MISS:          0  HIT %:       -nan  MISS %:       -nan   MPKI: 0
PSCL5 RFO       ACCESS:          0  HIT:          0  MISS:          0  HIT %:       -nan  MISS %:       -nan   MPKI: 0
PSCL5 PREFETCH  ACCESS:          0  HIT:          0  MISS:          0  HIT %:       -nan  MISS %:       -nan   MPKI: 0
PSCL5 WRITEBACK ACCESS:          0  HIT:          0  MISS:          0  HIT %:       -nan  MISS %:       -nan   MPKI: 0
PSCL4 TOTAL     ACCESS:     998431  HIT:     998431  MISS:          0  HIT %:        100  MISS %:          0   MPKI: 0
PSCL4 LOAD      ACCESS:          0  HIT:          0  MISS:          0  HIT %:       -nan  MISS %:       -nan   MPKI: 0
PSCL4 RFO       ACCESS:          0  HIT:          0  MISS:          0  HIT %:       -nan  MISS %:       -nan   MPKI: 0
PSCL4 PREFETCH  ACCESS:          0  HIT:          0  MISS:          0  HIT %:       -nan  MISS %:       -nan   MPKI: 0
PSCL4 WRITEBACK ACCESS:          0  HIT:          0  MISS:          0  HIT %:       -nan  MISS %:       -nan   MPKI: 0
PSCL3 TOTAL     ACCESS:     998431  HIT:     998431  MISS:          0  HIT %:        100  MISS %:          0   MPKI: 0
PSCL3 LOAD      ACCESS:          0  HIT:          0  MISS:          0  HIT %:       -nan  MISS %:       -nan   MPKI: 0
PSCL3 RFO       ACCESS:          0  HIT:          0  MISS:          0  HIT %:       -nan  MISS %:       -nan   MPKI: 0
PSCL3 PREFETCH  ACCESS:          0  HIT:          0  MISS:          0  HIT %:       -nan  MISS %:       -nan   MPKI: 0
PSCL3 WRITEBACK ACCESS:          0  HIT:          0  MISS:          0  HIT %:       -nan  MISS %:       -nan   MPKI: 0
PSCL2 TOTAL     ACCESS:     968277  HIT:     916514  MISS:      51763  HIT %:    94.6541  MISS %:    5.34589   MPKI: 0.258253
PSCL2 LOAD      ACCESS:          0  HIT:          0  MISS:          0  HIT %:       -nan  MISS %:       -nan   MPKI: 0
PSCL2 RFO       ACCESS:          0  HIT:          0  MISS:          0  HIT %:       -nan  MISS %:       -nan   MPKI: 0
PSCL2 PREFETCH  ACCESS:          0  HIT:          0  MISS:          0  HIT %:       -nan  MISS %:       -nan   MPKI: 0
PSCL2 WRITEBACK ACCESS:          0  HIT:          0  MISS:          0  HIT %:       -nan  MISS %:       -nan   MPKI: 0
LLC TOTAL     ACCESS:    6661235  HIT:    2951443  MISS:    3709792  HIT %:    44.3077  MISS %:    55.6923   MPKI: 18.5087
LLC LOAD      ACCESS:    3629445  HIT:     730179  MISS:    2899266  HIT %:    20.1182  MISS %:    79.8818   MPKI: 14.4649
LLC RFO       ACCESS:     635867  HIT:     118312  MISS:     517555  HIT %:    18.6064  MISS %:    81.3936   MPKI: 2.58216
LLC PREFETCH  ACCESS:     142273  HIT:       7047  MISS:     135226  HIT %:    4.95315  MISS %:    95.0468   MPKI: 0.674663
LLC WRITEBACK ACCESS:    1849549  HIT:    1763890  MISS:      85659  HIT %:    95.3687  MISS %:    4.63135   MPKI: 0.427366

RAW hits: 4694827
Loads Generated: 59919554
Loads sent to L1D: 55224726
Stores Generated: 33740183
Stores sent to L1D: 33740187

Region of Interest Statistics

CPU 0 cumulative IPC: 0.223243 instructions: 200000000 cycles: 895883380
ITLB TOTAL     ACCESS:   34171653  HIT:   34099752  MISS:      71901  HIT %:    99.7896  MISS %:   0.210411   MPKI: 0.359505
ITLB LOAD TRANSLATION ACCESS:   34171653  HIT:   34099752  MISS:      71901  HIT %:    99.7896  MISS %:   0.210411   MPKI: 0.359505
ITLB PREFETCH  REQUESTED:          0  ISSUED:          0  USEFUL:          0  USELESS:          0
ITLB USEFUL LOAD PREFETCHES:          0 PREFETCH ISSUED TO LOWER LEVEL:          0  ACCURACY: -nan
ITLB TIMELY PREFETCHES:          0 LATE PREFETCHES: 0 DROPPED PREFETCHES: 0
ITLB PREFETCHES SAME FILL-ORIGIN LEVEL: 0 DIFFERENT FILL-ORIGIN LEVEL: 0
ITLB AVERAGE MISS LATENCY: 10.8859 cycles
ITLB RQ	ACCESS:   38690268	FORWARD:          0	MERGED:    4371649	TO_CACHE:   34318619

DTLB TOTAL     ACCESS:   56391377  HIT:   52536902  MISS:    3854475  HIT %:    93.1648  MISS %:    6.83522   MPKI: 19.2724
DTLB LOAD TRANSLATION ACCESS:   56391377  HIT:   52536902  MISS:    3854475  HIT %:    93.1648  MISS %:    6.83522   MPKI: 19.2724
DTLB PREFETCH  REQUESTED:          0  ISSUED:          0  USEFUL:          0  USELESS:          0
DTLB USEFUL LOAD PREFETCHES:          0 PREFETCH ISSUED TO LOWER LEVEL:          0  ACCURACY: -nan
DTLB TIMELY PREFETCHES:          0 LATE PREFETCHES: 0 DROPPED PREFETCHES: 0
DTLB PREFETCHES SAME FILL-ORIGIN LEVEL: 0 DIFFERENT FILL-ORIGIN LEVEL: 0
DTLB AVERAGE MISS LATENCY: 23.9234 cycles
DTLB RQ	ACCESS:   70354877	FORWARD:          0	MERGED:   13550082	TO_CACHE:   56804795

STLB TOTAL     ACCESS:    4042550  HIT:    3082302  MISS:     960248  HIT %:    76.2465  MISS %:    23.7535   MPKI: 4.80124
STLB LOAD TRANSLATION ACCESS:    3926376  HIT:    2996928  MISS:     929448  HIT %:    76.3281  MISS %:    23.6719   MPKI: 4.64724
STLB TRANSLATION FROM L1D PREFETCHER ACCESS:     116174  HIT:      85374  MISS:      30800  HIT %:     73.488  MISS %:     26.512   MPKI: 0.154
STLB PREFETCH  REQUESTED:          0  ISSUED:          0  USEFUL:      24884  USELESS:       6014
STLB USEFUL LOAD PREFETCHES:      24884 PREFETCH ISSUED TO LOWER LEVEL:          0  ACCURACY: inf
STLB TIMELY PREFETCHES:      24884 LATE PREFETCHES: 12 DROPPED PREFETCHES: 36160
STLB PREFETCHES SAME FILL-ORIGIN LEVEL: 0 DIFFERENT FILL-ORIGIN LEVEL: 0
STLB AVERAGE MISS LATENCY: 61.6114 cycles
STLB RQ	ACCESS:    4168410	FORWARD:          0	MERGED:      73316	TO_CACHE:    4095094

STLB Hit, L1D data hit: 0
STLB Hit, L2C data hit: 0
STLB Hit, LLC data hit: 0
STLB Hit, LLC data miss: 0
STLB STLB hints to L2: 0
L1D TOTAL     ACCESS:   67662907  HIT:   62744168  MISS:    4918739  HIT %:    92.7305  MISS %:    7.26948   MPKI: 24.5937
L1D LOAD      ACCESS:   36341214  HIT:   32112937  MISS:    4228277  HIT %:    88.3651  MISS %:    11.6349   MPKI: 21.1414
L1D RFO       ACCESS:   31299299  HIT:   30616431  MISS:     682868  HIT %:    97.8183  MISS %:    2.18174   MPKI: 3.41434
L1D PREFETCH  ACCESS:      22394  HIT:      14800  MISS:       7594  HIT %:    66.0891  MISS %:    33.9109   MPKI: 0.03797
L1D PREFETCH  REQUESTED:     457371  ISSUED:     457125  USEFUL:       4124  USELESS:       3473
L1D USEFUL LOAD PREFETCHES:       4124 PREFETCH ISSUED TO LOWER LEVEL:     171675  ACCURACY: 2.40221
L1D TIMELY PREFETCHES:       4124 LATE PREFETCHES: 15 DROPPED PREFETCHES: 40009
L1D PREFETCHES SAME FILL-ORIGIN LEVEL: 7613 DIFFERENT FILL-ORIGIN LEVEL: 164062
L1D AVERAGE MISS LATENCY: 223.01 cycles
L1D RQ	ACCESS:   55300982	FORWARD:          0	MERGED:   16655065	TO_CACHE:   37203837
L1D WQ	ACCESS:   33771595	FORWARD:    1442080	MERGED:     620555	TO_CACHE:   33151040
L1D PQ	ACCESS:     230417	FORWARD:          0	MERGED:       3709	TO_CACHE:     226708

L1D UNIQUE REGIONS ACCESSED: 0
L1D REGIONS CONFLICTS: 0
L1D Cross Page Prefetch Requests: 216582
L1D Same Page Prefetch Requests: 83670
L1D ROI Sum of L1D PQ occupancy: 8526246
L1D PREFETCHES PUSHED FROM L2C: 0
L1I TOTAL     ACCESS:   38559312  HIT:   38554320  MISS:       4992  HIT %:    99.9871  MISS %:  0.0129463   MPKI: 0.02496
L1I LOAD      ACCESS:   38559312  HIT:   38554320  MISS:       4992  HIT %:    99.9871  MISS %:  0.0129463   MPKI: 0.02496
L1I PREFETCH  REQUESTED:          0  ISSUED:          0  USEFUL:          0  USELESS:          0
L1I USEFUL LOAD PREFETCHES:          0 PREFETCH ISSUED TO LOWER LEVEL:          0  ACCURACY: -nan
L1I TIMELY PREFETCHES:          0 LATE PREFETCHES: 0 DROPPED PREFETCHES: 0
L1I PREFETCHES SAME FILL-ORIGIN LEVEL: 0 DIFFERENT FILL-ORIGIN LEVEL: 0
L1I AVERAGE MISS LATENCY: 226.241 cycles
L1I RQ	ACCESS:   59351549	FORWARD:          0	MERGED:   20661281	TO_CACHE:   38690268

BTB TOTAL     ACCESS:   40349301  HIT:   38257859  MISS:    2091442  HIT %:    94.8167  MISS %:    5.18334   MPKI: 10.4572
BTB BRANCH_DIRECT_JUMP	ACCESS:    3900352  HIT:    3900154  MISS:        198
BTB BRANCH_INDIRECT	ACCESS:     593577  HIT:     495673  MISS:      97904
BTB BRANCH_CONDITIONAL	ACCESS:   23963559  HIT:   23963118  MISS:        441
BTB BRANCH_DIRECT_CALL	ACCESS:    5118074  HIT:    5117809  MISS:        265
BTB BRANCH_INDIRECT_CALL	ACCESS:     827828  HIT:     823357  MISS:       4471
BTB BRANCH_RETURN	ACCESS:    5945911  HIT:    3957748  MISS:    1988163
BTB BRANCH_OTHER ACCESS:          0  HIT:          0  MISS:          0

L2C TOTAL     ACCESS:    8277141  HIT:    3328941  MISS:    4948200  HIT %:    40.2185  MISS %:    59.7815   MPKI: 24.741
L2C LOAD      ACCESS:    4233167  HIT:     609735  MISS:    3623432  HIT %:    14.4038  MISS %:    85.5962   MPKI: 18.1172
L2C DATA LOAD MPKI: 18.0949
L2C INSTRUCTION LOAD MPKI: 0.022295
L2C RFO       ACCESS:     682867  HIT:      48961  MISS:     633906  HIT %:    7.16992  MISS %:    92.8301   MPKI: 3.16953
L2C PREFETCH  ACCESS:     167769  HIT:      27681  MISS:     140088  HIT %:    16.4995  MISS %:    83.5005   MPKI: 0.70044
L2C DATA PREFETCH MPKI: 0.70044
L2C INSTRUCTION PREFETCH MPKI: 0
L2C WRITEBACK ACCESS:    2114706  HIT:    1964283  MISS:     150423  HIT %:    92.8868  MISS %:    7.11319   MPKI: 0.752115
L2C LOAD TRANSLATION ACCESS:     980383  HIT:     587730  MISS:     392653  HIT %:     59.949  MISS %:     40.051   MPKI: 1.96327
L2C TRANSLATION FROM L1D PREFETCHER ACCESS:      98249  HIT:      90551  MISS:       7698  HIT %:    92.1648  MISS %:    7.83519   MPKI: 0.03849
L2C PREFETCH  REQUESTED:          0  ISSUED:          0  USEFUL:      55992  USELESS:      92134
L2C USEFUL LOAD PREFETCHES:      55992 PREFETCH ISSUED TO LOWER LEVEL:     141682  ACCURACY: 39.5195
L2C TIMELY PREFETCHES:      55992 LATE PREFETCHES: 1349 DROPPED PREFETCHES: 0
L2C PREFETCHES SAME FILL-ORIGIN LEVEL: 136778 DIFFERENT FILL-ORIGIN LEVEL: 0
L2C AVERAGE MISS LATENCY: 224.214 cycles
L2C RQ	ACCESS:    6014173	FORWARD:          0	MERGED:          0	TO_CACHE:    6014086
L2C WQ	ACCESS:    2121882	FORWARD:         87	MERGED:          0	TO_CACHE:    2121882
L2C PQ	ACCESS:     171675	FORWARD:          0	MERGED:          7	TO_CACHE:     171668

L2C Instructions Evicting Data 4049
L2C Translations Evicting Data 370349
L2C Data Evicting Data 4045398
L2C Instructions Evicting Instructions 53
L2C Translations Evicting Instructions 398
L2C Data Evicting Instructions 3873
L2C Instructions Evicting Translations 358
L2C Translations Evicting Translations 30788
L2C Data Evicting Translations 358521
L2C Dense regions hint from L2: 0
PSCL5 TOTAL     ACCESS:     996387  HIT:     996387  MISS:          0  HIT %:        100  MISS %:          0   MPKI: 0
PSCL5 LOAD TRANSLATION ACCESS:     929436  HIT:     929436  MISS:          0  HIT %:        100  MISS %:          0   MPKI: 0
PSCL5 TRANSLATION FROM L1D PREFETCHER ACCESS:      66951  HIT:      66951  MISS:          0  HIT %:        100  MISS %:          0   MPKI: 0
PSCL5 PREFETCH  REQUESTED:          0  ISSUED:          0  USEFUL:          0  USELESS:          0
PSCL5 USEFUL LOAD PREFETCHES:          0 PREFETCH ISSUED TO LOWER LEVEL:          0  ACCURACY: -nan
PSCL5 TIMELY PREFETCHES:          0 LATE PREFETCHES: 0 DROPPED PREFETCHES: 0
PSCL5 PREFETCHES SAME FILL-ORIGIN LEVEL: 0 DIFFERENT FILL-ORIGIN LEVEL: 0

PSCL4 TOTAL     ACCESS:     996387  HIT:     996387  MISS:          0  HIT %:        100  MISS %:          0   MPKI: 0
PSCL4 LOAD TRANSLATION ACCESS:     929436  HIT:     929436  MISS:          0  HIT %:        100  MISS %:          0   MPKI: 0
PSCL4 TRANSLATION FROM L1D PREFETCHER ACCESS:      66951  HIT:      66951  MISS:          0  HIT %:        100  MISS %:          0   MPKI: 0
PSCL4 PREFETCH  REQUESTED:          0  ISSUED:          0  USEFUL:          0  USELESS:          0
PSCL4 USEFUL LOAD PREFETCHES:          0 PREFETCH ISSUED TO LOWER LEVEL:          0  ACCURACY: -nan
PSCL4 TIMELY PREFETCHES:          0 LATE PREFETCHES: 0 DROPPED PREFETCHES: 0
PSCL4 PREFETCHES SAME FILL-ORIGIN LEVEL: 0 DIFFERENT FILL-ORIGIN LEVEL: 0

PSCL3 TOTAL     ACCESS:     996387  HIT:     996387  MISS:          0  HIT %:        100  MISS %:          0   MPKI: 0
PSCL3 LOAD TRANSLATION ACCESS:     929436  HIT:     929436  MISS:          0  HIT %:        100  MISS %:          0   MPKI: 0
PSCL3 TRANSLATION FROM L1D PREFETCHER ACCESS:      66951  HIT:      66951  MISS:          0  HIT %:        100  MISS %:          0   MPKI: 0
PSCL3 PREFETCH  REQUESTED:          0  ISSUED:          0  USEFUL:          0  USELESS:          0
PSCL3 USEFUL LOAD PREFETCHES:          0 PREFETCH ISSUED TO LOWER LEVEL:          0  ACCURACY: -nan
PSCL3 TIMELY PREFETCHES:          0 LATE PREFETCHES: 0 DROPPED PREFETCHES: 0
PSCL3 PREFETCHES SAME FILL-ORIGIN LEVEL: 0 DIFFERENT FILL-ORIGIN LEVEL: 0

PSCL2 TOTAL     ACCESS:     965492  HIT:     914139  MISS:      51353  HIT %:    94.6812  MISS %:    5.31884   MPKI: 0.256765
PSCL2 LOAD TRANSLATION ACCESS:     929839  HIT:     878486  MISS:      51353  HIT %:    94.4772  MISS %:    5.52278   MPKI: 0.256765
PSCL2 TRANSLATION FROM L1D PREFETCHER ACCESS:      35653  HIT:      35653  MISS:          0  HIT %:        100  MISS %:          0   MPKI: 0
PSCL2 PREFETCH  REQUESTED:          0  ISSUED:          0  USEFUL:          0  USELESS:          0
PSCL2 USEFUL LOAD PREFETCHES:          0 PREFETCH ISSUED TO LOWER LEVEL:          0  ACCURACY: -nan
PSCL2 TIMELY PREFETCHES:          0 LATE PREFETCHES: 0 DROPPED PREFETCHES: 0
PSCL2 PREFETCHES SAME FILL-ORIGIN LEVEL: 0 DIFFERENT FILL-ORIGIN LEVEL: 0

LLC TOTAL     ACCESS:    6642391  HIT:    2941002  MISS:    3701389  HIT %:    44.2763  MISS %:    55.7237   MPKI: 18.5069
LLC LOAD      ACCESS:    3622157  HIT:     729389  MISS:    2892768  HIT %:    20.1369  MISS %:    79.8631   MPKI: 14.4638
LLC RFO       ACCESS:     633828  HIT:     117022  MISS:     516806  HIT %:    18.4627  MISS %:    81.5373   MPKI: 2.58403
LLC PREFETCH  ACCESS:     141436  HIT:       6880  MISS:     134556  HIT %:    4.86439  MISS %:    95.1356   MPKI: 0.67278
LLC WRITEBACK ACCESS:    1844619  HIT:    1759040  MISS:      85579  HIT %:    95.3606  MISS %:    4.63939   MPKI: 0.427895
LLC LOAD TRANSLATION ACCESS:     392653  HIT:     324563  MISS:      68090  HIT %:     82.659  MISS %:     17.341   MPKI: 0.34045
LLC TRANSLATION FROM L1D PREFETCHER ACCESS:       7698  HIT:       4108  MISS:       3590  HIT %:    53.3645  MISS %:    46.6355   MPKI: 0.01795
LLC PREFETCH  REQUESTED:          0  ISSUED:          0  USEFUL:      50311  USELESS:     496277
LLC USEFUL LOAD PREFETCHES:      50311 PREFETCH ISSUED TO LOWER LEVEL:     535692  ACCURACY: 9.39178
LLC TIMELY PREFETCHES:      50311 LATE PREFETCHES: 0 DROPPED PREFETCHES: 0
LLC PREFETCHES SAME FILL-ORIGIN LEVEL: 0 DIFFERENT FILL-ORIGIN LEVEL: 0
LLC AVERAGE MISS LATENCY: 1043.73 cycles
LLC RQ	ACCESS:   18663346	FORWARD:          0	MERGED:          0	TO_CACHE:   18663332
LLC WQ	ACCESS:    7392548	FORWARD:         14	MERGED:          0	TO_CACHE:    7392548
LLC PQ	ACCESS:     563840	FORWARD:          0	MERGED:          0	TO_CACHE:     563840

LLC Dense regions hint to LLC: 0

RAW hits: 4684327
Loads Generated: 59792942
Loads sent to L1D: 55108613
Stores Generated: 33673021
Stores sent to L1D: 33673020
Major fault: 0 Minor fault: 35399
Allocated PAGES: 141596

CPU 1 cumulative IPC: 0.222701 instructions: 200000001 cycles: 898065824
ITLB TOTAL     ACCESS:   34172035  HIT:   34100134  MISS:      71901  HIT %:    99.7896  MISS %:   0.210409   MPKI: 0.359505
ITLB LOAD TRANSLATION ACCESS:   34172035  HIT:   34100134  MISS:      71901  HIT %:    99.7896  MISS %:   0.210409   MPKI: 0.359505
ITLB PREFETCH  REQUESTED:          0  ISSUED:          0  USEFUL:          0  USELESS:          0
ITLB USEFUL LOAD PREFETCHES:          0 PREFETCH ISSUED TO LOWER LEVEL:          0  ACCURACY: -nan
ITLB TIMELY PREFETCHES:          0 LATE PREFETCHES: 0 DROPPED PREFETCHES: 0
ITLB PREFETCHES SAME FILL-ORIGIN LEVEL: 0 DIFFERENT FILL-ORIGIN LEVEL: 0
ITLB AVERAGE MISS LATENCY: 10.8113 cycles
ITLB RQ	ACCESS:   38588538	FORWARD:          0	MERGED:    4359661	TO_CACHE:   34228877

DTLB TOTAL     ACCESS:   56392015  HIT:   52537582  MISS:    3854433  HIT %:    93.1649  MISS %:    6.83507   MPKI: 19.2722
DTLB LOAD TRANSLATION ACCESS:   56392015  HIT:   52537582  MISS:    3854433  HIT %:    93.1649  MISS %:    6.83507   MPKI: 19.2722
DTLB PREFETCH  REQUESTED:          0  ISSUED:          0  USEFUL:          0  USELESS:          0
DTLB USEFUL LOAD PREFETCHES:          0 PREFETCH ISSUED TO LOWER LEVEL:          0  ACCURACY: -nan
DTLB TIMELY PREFETCHES:          0 LATE PREFETCHES: 0 DROPPED PREFETCHES: 0
DTLB PREFETCHES SAME FILL-ORIGIN LEVEL: 0 DIFFERENT FILL-ORIGIN LEVEL: 0
DTLB AVERAGE MISS LATENCY: 24.2075 cycles
DTLB RQ	ACCESS:   70178323	FORWARD:          0	MERGED:   13517610	TO_CACHE:   56660713

STLB TOTAL     ACCESS:    4039991  HIT:    3079088  MISS:     960903  HIT %:    76.2152  MISS %:    23.7848   MPKI: 4.80451
STLB LOAD TRANSLATION ACCESS:    3926333  HIT:    2995606  MISS:     930727  HIT %:    76.2953  MISS %:    23.7047   MPKI: 4.65363
STLB TRANSLATION FROM L1D PREFETCHER ACCESS:     113658  HIT:      83482  MISS:      30176  HIT %:    73.4502  MISS %:    26.5498   MPKI: 0.15088
STLB PREFETCH  REQUESTED:          0  ISSUED:          0  USEFUL:      24077  USELESS:       6106
STLB USEFUL LOAD PREFETCHES:      24077 PREFETCH ISSUED TO LOWER LEVEL:          0  ACCURACY: inf
STLB TIMELY PREFETCHES:      24077 LATE PREFETCHES: 15 DROPPED PREFETCHES: 35342
STLB PREFETCHES SAME FILL-ORIGIN LEVEL: 0 DIFFERENT FILL-ORIGIN LEVEL: 0
STLB AVERAGE MISS LATENCY: 62.8572 cycles
STLB RQ	ACCESS:    4150778	FORWARD:          0	MERGED:      71171	TO_CACHE:    4079607

STLB Hit, L1D data hit: 0
STLB Hit, L2C data hit: 0
STLB Hit, LLC data hit: 0
STLB Hit, LLC data miss: 0
STLB STLB hints to L2: 0
L1D TOTAL     ACCESS:   67658458  HIT:   62739586  MISS:    4918872  HIT %:    92.7298  MISS %:    7.27015   MPKI: 24.5944
L1D LOAD      ACCESS:   36337617  HIT:   32109516  MISS:    4228101  HIT %:    88.3644  MISS %:    11.6356   MPKI: 21.1405
L1D RFO       ACCESS:   31299505  HIT:   30615795  MISS:     683710  HIT %:    97.8156  MISS %:    2.18441   MPKI: 3.41855
L1D PREFETCH  ACCESS:      21336  HIT:      14275  MISS:       7061  HIT %:    66.9057  MISS %:    33.0943   MPKI: 0.035305
L1D PREFETCH  REQUESTED:     445841  ISSUED:     445540  USEFUL:       3840  USELESS:       3221
L1D USEFUL LOAD PREFETCHES:       3840 PREFETCH ISSUED TO LOWER LEVEL:     167424  ACCURACY: 2.29358
L1D TIMELY PREFETCHES:       3840 LATE PREFETCHES: 13 DROPPED PREFETCHES: 39162
L1D PREFETCHES SAME FILL-ORIGIN LEVEL: 7074 DIFFERENT FILL-ORIGIN LEVEL: 160350
L1D AVERAGE MISS LATENCY: 222.889 cycles
L1D RQ	ACCESS:   55144376	FORWARD:          0	MERGED:   16605283	TO_CACHE:   37101795
L1D WQ	ACCESS:   33694850	FORWARD:    1437298	MERGED:     618322	TO_CACHE:   33076528
L1D PQ	ACCESS:     224480	FORWARD:          0	MERGED:       3420	TO_CACHE:     221060

L1D UNIQUE REGIONS ACCESSED: 0
L1D REGIONS CONFLICTS: 0
L1D Cross Page Prefetch Requests: 212107
L1D Same Page Prefetch Requests: 82536
L1D ROI Sum of L1D PQ occupancy: 8520567
L1D PREFETCHES PUSHED FROM L2C: 0
L1I TOTAL     ACCESS:   38559852  HIT:   38554857  MISS:       4995  HIT %:     99.987  MISS %:  0.0129539   MPKI: 0.024975
L1I LOAD      ACCESS:   38559852  HIT:   38554857  MISS:       4995  HIT %:     99.987  MISS %:  0.0129539   MPKI: 0.024975
L1I PREFETCH  REQUESTED:          0  ISSUED:          0  USEFUL:          0  USELESS:          0
L1I USEFUL LOAD PREFETCHES:          0 PREFETCH ISSUED TO LOWER LEVEL:          0  ACCURACY: -nan
L1I TIMELY PREFETCHES:          0 LATE PREFETCHES: 0 DROPPED PREFETCHES: 0
L1I PREFETCHES SAME FILL-ORIGIN LEVEL: 0 DIFFERENT FILL-ORIGIN LEVEL: 0
L1I AVERAGE MISS LATENCY: 226.933 cycles
L1I RQ	ACCESS:   59196229	FORWARD:          0	MERGED:   20607691	TO_CACHE:   38588538

BTB TOTAL     ACCESS:   40343364  HIT:   38252116  MISS:    2091248  HIT %:    94.8164  MISS %:    5.18362   MPKI: 10.4562
BTB BRANCH_DIRECT_JUMP	ACCESS:    3899649  HIT:    3899451  MISS:        198
BTB BRANCH_INDIRECT	ACCESS:     593504  HIT:     495650  MISS:      97854
BTB BRANCH_CONDITIONAL	ACCESS:   23960478  HIT:   23960028  MISS:        450
BTB BRANCH_DIRECT_CALL	ACCESS:    5117230  HIT:    5116965  MISS:        265
BTB BRANCH_INDIRECT_CALL	ACCESS:     827631  HIT:     823160  MISS:       4471
BTB BRANCH_RETURN	ACCESS:    5944872  HIT:    3956862  MISS:    1988010
BTB BRANCH_OTHER ACCESS:          0  HIT:          0  MISS:          0

L2C TOTAL     ACCESS:    8272868  HIT:    3318953  MISS:    4953915  HIT %:    40.1185  MISS %:    59.8815   MPKI: 24.7696
L2C LOAD      ACCESS:    4232996  HIT:     608282  MISS:    3624714  HIT %:      14.37  MISS %:      85.63   MPKI: 18.1236
L2C DATA LOAD MPKI: 18.1013
L2C INSTRUCTION LOAD MPKI: 0.022285
L2C RFO       ACCESS:     683710  HIT:      48804  MISS:     634906  HIT %:    7.13811  MISS %:    92.8619   MPKI: 3.17453
L2C PREFETCH  ACCESS:     163796  HIT:      26386  MISS:     137410  HIT %:    16.1091  MISS %:    83.8909   MPKI: 0.68705
L2C DATA PREFETCH MPKI: 0.68705
L2C INSTRUCTION PREFETCH MPKI: 0
L2C WRITEBACK ACCESS:    2115010  HIT:    1960753  MISS:     154257  HIT %:    92.7066  MISS %:    7.29344   MPKI: 0.771285
L2C LOAD TRANSLATION ACCESS:     981830  HIT:     586946  MISS:     394884  HIT %:    59.7808  MISS %:    40.2192   MPKI: 1.97442
L2C TRANSLATION FROM L1D PREFETCHER ACCESS:      95526  HIT:      87782  MISS:       7744  HIT %:    91.8933  MISS %:    8.10669   MPKI: 0.03872
L2C PREFETCH  REQUESTED:          0  ISSUED:          0  USEFUL:      55350  USELESS:      89740
L2C USEFUL LOAD PREFETCHES:      55350 PREFETCH ISSUED TO LOWER LEVEL:     138842  ACCURACY: 39.8655
L2C TIMELY PREFETCHES:      55350 LATE PREFETCHES: 1399 DROPPED PREFETCHES: 0
L2C PREFETCHES SAME FILL-ORIGIN LEVEL: 134351 DIFFERENT FILL-ORIGIN LEVEL: 0
L2C AVERAGE MISS LATENCY: 223.95 cycles
L2C RQ	ACCESS:    5997591	FORWARD:          0	MERGED:          0	TO_CACHE:    5997504
L2C WQ	ACCESS:    2116221	FORWARD:         87	MERGED:          0	TO_CACHE:    2116221
L2C PQ	ACCESS:     167424	FORWARD:          0	MERGED:          2	TO_CACHE:     167422

L2C Instructions Evicting Data 4018
L2C Translations Evicting Data 372801
L2C Data Evicting Data 4031568
L2C Instructions Evicting Instructions 25
L2C Translations Evicting Instructions 431
L2C Data Evicting Instructions 3858
L2C Instructions Evicting Translations 414
L2C Translations Evicting Translations 29549
L2C Data Evicting Translations 359982
L2C Dense regions hint from L2: 0
PSCL5 TOTAL     ACCESS:     996244  HIT:     996244  MISS:          0  HIT %:        100  MISS %:          0   MPKI: 0
PSCL5 LOAD TRANSLATION ACCESS:     930712  HIT:     930712  MISS:          0  HIT %:        100  MISS %:          0   MPKI: 0
PSCL5 TRANSLATION FROM L1D PREFETCHER ACCESS:      65532  HIT:      65532  MISS:          0  HIT %:        100  MISS %:          0   MPKI: 0
PSCL5 PREFETCH  REQUESTED:          0  ISSUED:          0  USEFUL:          0  USELESS:          0
PSCL5 USEFUL LOAD PREFETCHES:          0 PREFETCH ISSUED TO LOWER LEVEL:          0  ACCURACY: -nan
PSCL5 TIMELY PREFETCHES:          0 LATE PREFETCHES: 0 DROPPED PREFETCHES: 0
PSCL5 PREFETCHES SAME FILL-ORIGIN LEVEL: 0 DIFFERENT FILL-ORIGIN LEVEL: 0

PSCL4 TOTAL     ACCESS:     996244  HIT:     996244  MISS:          0  HIT %:        100  MISS %:          0   MPKI: 0
PSCL4 LOAD TRANSLATION ACCESS:     930712  HIT:     930712  MISS:          0  HIT %:        100  MISS %:          0   MPKI: 0
PSCL4 TRANSLATION FROM L1D PREFETCHER ACCESS:      65532  HIT:      65532  MISS:          0  HIT %:        100  MISS %:          0   MPKI: 0
PSCL4 PREFETCH  REQUESTED:          0  ISSUED:          0  USEFUL:          0  USELESS:          0
PSCL4 USEFUL LOAD PREFETCHES:          0 PREFETCH ISSUED TO LOWER LEVEL:          0  ACCURACY: -nan
PSCL4 TIMELY PREFETCHES:          0 LATE PREFETCHES: 0 DROPPED PREFETCHES: 0
PSCL4 PREFETCHES SAME FILL-ORIGIN LEVEL: 0 DIFFERENT FILL-ORIGIN LEVEL: 0

PSCL3 TOTAL     ACCESS:     996244  HIT:     996244  MISS:          0  HIT %:        100  MISS %:          0   MPKI: 0
PSCL3 LOAD TRANSLATION ACCESS:     930712  HIT:     930712  MISS:          0  HIT %:        100  MISS %:          0   MPKI: 0
PSCL3 TRANSLATION FROM L1D PREFETCHER ACCESS:      65532  HIT:      65532  MISS:          0  HIT %:        100  MISS %:          0   MPKI: 0
PSCL3 PREFETCH  REQUESTED:          0  ISSUED:          0  USEFUL:          0  USELESS:          0
PSCL3 USEFUL LOAD PREFETCHES:          0 PREFETCH ISSUED TO LOWER LEVEL:          0  ACCURACY: -nan
PSCL3 TIMELY PREFETCHES:          0 LATE PREFETCHES: 0 DROPPED PREFETCHES: 0
PSCL3 PREFETCHES SAME FILL-ORIGIN LEVEL: 0 DIFFERENT FILL-ORIGIN LEVEL: 0

PSCL2 TOTAL     ACCESS:     966663  HIT:     915129  MISS:      51534  HIT %:    94.6689  MISS %:    5.33112   MPKI: 0.25767
PSCL2 LOAD TRANSLATION ACCESS:     931125  HIT:     879591  MISS:      51534  HIT %:    94.4654  MISS %:     5.5346   MPKI: 0.25767
PSCL2 TRANSLATION FROM L1D PREFETCHER ACCESS:      35538  HIT:      35538  MISS:          0  HIT %:        100  MISS %:          0   MPKI: 0
PSCL2 PREFETCH  REQUESTED:          0  ISSUED:          0  USEFUL:          0  USELESS:          0
PSCL2 USEFUL LOAD PREFETCHES:          0 PREFETCH ISSUED TO LOWER LEVEL:          0  ACCURACY: -nan
PSCL2 TIMELY PREFETCHES:          0 LATE PREFETCHES: 0 DROPPED PREFETCHES: 0
PSCL2 PREFETCHES SAME FILL-ORIGIN LEVEL: 0 DIFFERENT FILL-ORIGIN LEVEL: 0

LLC TOTAL     ACCESS:    6646478  HIT:    2938917  MISS:    3707561  HIT %:    44.2177  MISS %:    55.7823   MPKI: 18.5378
LLC LOAD      ACCESS:    3623394  HIT:     723945  MISS:    2899449  HIT %:    19.9797  MISS %:    80.0203   MPKI: 14.4972
LLC RFO       ACCESS:     634823  HIT:     118303  MISS:     516520  HIT %:    18.6356  MISS %:    81.3644   MPKI: 2.5826
LLC PREFETCH  ACCESS:     138809  HIT:       7098  MISS:     131711  HIT %:     5.1135  MISS %:    94.8865   MPKI: 0.658555
LLC WRITEBACK ACCESS:    1846824  HIT:    1761726  MISS:      85098  HIT %:    95.3922  MISS %:     4.6078   MPKI: 0.42549
LLC LOAD TRANSLATION ACCESS:     394884  HIT:     323745  MISS:      71139  HIT %:    81.9848  MISS %:    18.0152   MPKI: 0.355695
LLC TRANSLATION FROM L1D PREFETCHER ACCESS:       7744  HIT:       4100  MISS:       3644  HIT %:    52.9442  MISS %:    47.0558   MPKI: 0.01822
LLC PREFETCH  REQUESTED:          0  ISSUED:          0  USEFUL:      50311  USELESS:     496277
LLC USEFUL LOAD PREFETCHES:      50311 PREFETCH ISSUED TO LOWER LEVEL:     535692  ACCURACY: 9.39178
LLC TIMELY PREFETCHES:      50311 LATE PREFETCHES: 0 DROPPED PREFETCHES: 0
LLC PREFETCHES SAME FILL-ORIGIN LEVEL: 0 DIFFERENT FILL-ORIGIN LEVEL: 0
LLC AVERAGE MISS LATENCY: 1041.99 cycles
LLC RQ	ACCESS:   18663346	FORWARD:          0	MERGED:          0	TO_CACHE:   18663332
LLC WQ	ACCESS:    7392548	FORWARD:         14	MERGED:          0	TO_CACHE:    7392548
LLC PQ	ACCESS:     563840	FORWARD:          0	MERGED:          0	TO_CACHE:     563840

LLC Dense regions hint to LLC: 0

RAW hits: 4683541
Loads Generated: 59786635
Loads sent to L1D: 55103095
Stores Generated: 33673932
Stores sent to L1D: 33673936
Major fault: 0 Minor fault: 35399
Allocated PAGES: 141596

CPU 2 cumulative IPC: 0.222582 instructions: 200000001 cycles: 898543338
ITLB TOTAL     ACCESS:   34172117  HIT:   34100211  MISS:      71906  HIT %:    99.7896  MISS %:   0.210423   MPKI: 0.35953
ITLB LOAD TRANSLATION ACCESS:   34172117  HIT:   34100211  MISS:      71906  HIT %:    99.7896  MISS %:   0.210423   MPKI: 0.35953
ITLB PREFETCH  REQUESTED:          0  ISSUED:          0  USEFUL:          0  USELESS:          0
ITLB USEFUL LOAD PREFETCHES:          0 PREFETCH ISSUED TO LOWER LEVEL:          0  ACCURACY: -nan
ITLB TIMELY PREFETCHES:          0 LATE PREFETCHES: 0 DROPPED PREFETCHES: 0
ITLB PREFETCHES SAME FILL-ORIGIN LEVEL: 0 DIFFERENT FILL-ORIGIN LEVEL: 0
ITLB AVERAGE MISS LATENCY: 10.9816 cycles
ITLB RQ	ACCESS:   38560782	FORWARD:          0	MERGED:    4356253	TO_CACHE:   34204529

DTLB TOTAL     ACCESS:   56390219  HIT:   52536061  MISS:    3854158  HIT %:    93.1652  MISS %:     6.8348   MPKI: 19.2708
DTLB LOAD TRANSLATION ACCESS:   56390219  HIT:   52536061  MISS:    3854158  HIT %:    93.1652  MISS %:     6.8348   MPKI: 19.2708
DTLB PREFETCH  REQUESTED:          0  ISSUED:          0  USEFUL:          0  USELESS:          0
DTLB USEFUL LOAD PREFETCHES:          0 PREFETCH ISSUED TO LOWER LEVEL:          0  ACCURACY: -nan
DTLB TIMELY PREFETCHES:          0 LATE PREFETCHES: 0 DROPPED PREFETCHES: 0
DTLB PREFETCHES SAME FILL-ORIGIN LEVEL: 0 DIFFERENT FILL-ORIGIN LEVEL: 0
DTLB AVERAGE MISS LATENCY: 24.1352 cycles
DTLB RQ	ACCESS:   70130122	FORWARD:          0	MERGED:   13510130	TO_CACHE:   56619992

STLB TOTAL     ACCESS:    4041501  HIT:    3080467  MISS:     961034  HIT %:    76.2209  MISS %:    23.7791   MPKI: 4.80517
STLB LOAD TRANSLATION ACCESS:    3926064  HIT:    2995687  MISS:     930377  HIT %:    76.3026  MISS %:    23.6974   MPKI: 4.65188
STLB TRANSLATION FROM L1D PREFETCHER ACCESS:     115437  HIT:      84780  MISS:      30657  HIT %:    73.4427  MISS %:    26.5573   MPKI: 0.153285
STLB PREFETCH  REQUESTED:          0  ISSUED:          0  USEFUL:      24566  USELESS:       6075
STLB USEFUL LOAD PREFETCHES:      24566 PREFETCH ISSUED TO LOWER LEVEL:          0  ACCURACY: inf
STLB TIMELY PREFETCHES:      24566 LATE PREFETCHES: 14 DROPPED PREFETCHES: 35627
STLB PREFETCHES SAME FILL-ORIGIN LEVEL: 0 DIFFERENT FILL-ORIGIN LEVEL: 0
STLB AVERAGE MISS LATENCY: 62.6168 cycles
STLB RQ	ACCESS:    4151629	FORWARD:          0	MERGED:      73672	TO_CACHE:    4077957

STLB Hit, L1D data hit: 0
STLB Hit, L2C data hit: 0
STLB Hit, LLC data hit: 0
STLB Hit, LLC data miss: 0
STLB STLB hints to L2: 0
L1D TOTAL     ACCESS:   67657287  HIT:   62738504  MISS:    4918783  HIT %:    92.7299  MISS %:    7.27015   MPKI: 24.5939
L1D LOAD      ACCESS:   36335645  HIT:   32108057  MISS:    4227588  HIT %:    88.3652  MISS %:    11.6348   MPKI: 21.1379
L1D RFO       ACCESS:   31299557  HIT:   30615779  MISS:     683778  HIT %:    97.8154  MISS %:    2.18463   MPKI: 3.41889
L1D PREFETCH  ACCESS:      22085  HIT:      14668  MISS:       7417  HIT %:    66.4161  MISS %:    33.5839   MPKI: 0.037085
L1D PREFETCH  REQUESTED:     454833  ISSUED:     454549  USEFUL:       4184  USELESS:       3233
L1D USEFUL LOAD PREFETCHES:       4184 PREFETCH ISSUED TO LOWER LEVEL:     171107  ACCURACY: 2.44525
L1D TIMELY PREFETCHES:       4184 LATE PREFETCHES: 8 DROPPED PREFETCHES: 39560
L1D PREFETCHES SAME FILL-ORIGIN LEVEL: 7425 DIFFERENT FILL-ORIGIN LEVEL: 163682
L1D AVERAGE MISS LATENCY: 222.969 cycles
L1D RQ	ACCESS:   55100476	FORWARD:          0	MERGED:   16591036	TO_CACHE:   37073454
L1D WQ	ACCESS:   33675222	FORWARD:    1435986	MERGED:     618554	TO_CACHE:   33056668
L1D PQ	ACCESS:     228984	FORWARD:          0	MERGED:       3419	TO_CACHE:     225565

L1D UNIQUE REGIONS ACCESSED: 0
L1D REGIONS CONFLICTS: 0
L1D Cross Page Prefetch Requests: 215015
L1D Same Page Prefetch Requests: 83848
L1D ROI Sum of L1D PQ occupancy: 8649984
L1D PREFETCHES PUSHED FROM L2C: 0
L1I TOTAL     ACCESS:   38559833  HIT:   38554838  MISS:       4995  HIT %:     99.987  MISS %:  0.0129539   MPKI: 0.024975
L1I LOAD      ACCESS:   38559833  HIT:   38554838  MISS:       4995  HIT %:     99.987  MISS %:  0.0129539   MPKI: 0.024975
L1I PREFETCH  REQUESTED:          0  ISSUED:          0  USEFUL:          0  USELESS:          0
L1I USEFUL LOAD PREFETCHES:          0 PREFETCH ISSUED TO LOWER LEVEL:          0  ACCURACY: -nan
L1I TIMELY PREFETCHES:          0 LATE PREFETCHES: 0 DROPPED PREFETCHES: 0
L1I PREFETCHES SAME FILL-ORIGIN LEVEL: 0 DIFFERENT FILL-ORIGIN LEVEL: 0
L1I AVERAGE MISS LATENCY: 224.763 cycles
L1I RQ	ACCESS:   59154025	FORWARD:          0	MERGED:   20593243	TO_CACHE:   38560782

BTB TOTAL     ACCESS:   40342817  HIT:   38251445  MISS:    2091372  HIT %:     94.816  MISS %:      5.184   MPKI: 10.4569
BTB BRANCH_DIRECT_JUMP	ACCESS:    3899556  HIT:    3899358  MISS:        198
BTB BRANCH_INDIRECT	ACCESS:     593486  HIT:     495664  MISS:      97822
BTB BRANCH_CONDITIONAL	ACCESS:   23959728  HIT:   23959278  MISS:        450
BTB BRANCH_DIRECT_CALL	ACCESS:    5117457  HIT:    5117192  MISS:        265
BTB BRANCH_INDIRECT_CALL	ACCESS:     827565  HIT:     823094  MISS:       4471
BTB BRANCH_RETURN	ACCESS:    5945025  HIT:    3956859  MISS:    1988166
BTB BRANCH_OTHER ACCESS:          0  HIT:          0  MISS:          0

L2C TOTAL     ACCESS:    8277238  HIT:    3324466  MISS:    4952772  HIT %:     40.164  MISS %:     59.836   MPKI: 24.7639
L2C LOAD      ACCESS:    4232488  HIT:     609447  MISS:    3623041  HIT %:    14.3993  MISS %:    85.6007   MPKI: 18.1152
L2C DATA LOAD MPKI: 18.093
L2C INSTRUCTION LOAD MPKI: 0.022175
L2C RFO       ACCESS:     683778  HIT:      49061  MISS:     634717  HIT %:    7.17499  MISS %:     92.825   MPKI: 3.17358
L2C PREFETCH  ACCESS:     167669  HIT:      28004  MISS:     139665  HIT %:     16.702  MISS %:     83.298   MPKI: 0.698325
L2C DATA PREFETCH MPKI: 0.698325
L2C INSTRUCTION PREFETCH MPKI: 0
L2C WRITEBACK ACCESS:    2115017  HIT:    1961307  MISS:     153710  HIT %:    92.7324  MISS %:    7.26755   MPKI: 0.76855
L2C LOAD TRANSLATION ACCESS:     981299  HIT:     587469  MISS:     393830  HIT %:    59.8665  MISS %:    40.1335   MPKI: 1.96915
L2C TRANSLATION FROM L1D PREFETCHER ACCESS:      96987  HIT:      89178  MISS:       7809  HIT %:    91.9484  MISS %:    8.05159   MPKI: 0.039045
L2C PREFETCH  REQUESTED:          0  ISSUED:          0  USEFUL:      56021  USELESS:      91109
L2C USEFUL LOAD PREFETCHES:      56021 PREFETCH ISSUED TO LOWER LEVEL:     141043  ACCURACY: 39.7191
L2C TIMELY PREFETCHES:      56021 LATE PREFETCHES: 1378 DROPPED PREFETCHES: 0
L2C PREFETCHES SAME FILL-ORIGIN LEVEL: 136226 DIFFERENT FILL-ORIGIN LEVEL: 0
L2C AVERAGE MISS LATENCY: 224.245 cycles
L2C RQ	ACCESS:    5994639	FORWARD:          0	MERGED:          0	TO_CACHE:    5994552
L2C WQ	ACCESS:    2115017	FORWARD:         87	MERGED:          0	TO_CACHE:    2115017
L2C PQ	ACCESS:     171107	FORWARD:          0	MERGED:          7	TO_CACHE:     171100

L2C Instructions Evicting Data 4079
L2C Translations Evicting Data 371333
L2C Data Evicting Data 4030235
L2C Instructions Evicting Instructions 71
L2C Translations Evicting Instructions 298
L2C Data Evicting Instructions 3954
L2C Instructions Evicting Translations 285
L2C Translations Evicting Translations 30008
L2C Data Evicting Translations 358799
L2C Dense regions hint from L2: 0
PSCL5 TOTAL     ACCESS:     996661  HIT:     996661  MISS:          0  HIT %:        100  MISS %:          0   MPKI: 0
PSCL5 LOAD TRANSLATION ACCESS:     930363  HIT:     930363  MISS:          0  HIT %:        100  MISS %:          0   MPKI: 0
PSCL5 TRANSLATION FROM L1D PREFETCHER ACCESS:      66298  HIT:      66298  MISS:          0  HIT %:        100  MISS %:          0   MPKI: 0
PSCL5 PREFETCH  REQUESTED:          0  ISSUED:          0  USEFUL:          0  USELESS:          0
PSCL5 USEFUL LOAD PREFETCHES:          0 PREFETCH ISSUED TO LOWER LEVEL:          0  ACCURACY: -nan
PSCL5 TIMELY PREFETCHES:          0 LATE PREFETCHES: 0 DROPPED PREFETCHES: 0
PSCL5 PREFETCHES SAME FILL-ORIGIN LEVEL: 0 DIFFERENT FILL-ORIGIN LEVEL: 0

PSCL4 TOTAL     ACCESS:     996661  HIT:     996661  MISS:          0  HIT %:        100  MISS %:          0   MPKI: 0
PSCL4 LOAD TRANSLATION ACCESS:     930363  HIT:     930363  MISS:          0  HIT %:        100  MISS %:          0   MPKI: 0
PSCL4 TRANSLATION FROM L1D PREFETCHER ACCESS:      66298  HIT:      66298  MISS:          0  HIT %:        100  MISS %:          0   MPKI: 0
PSCL4 PREFETCH  REQUESTED:          0  ISSUED:          0  USEFUL:          0  USELESS:          0
PSCL4 USEFUL LOAD PREFETCHES:          0 PREFETCH ISSUED TO LOWER LEVEL:          0  ACCURACY: -nan
PSCL4 TIMELY PREFETCHES:          0 LATE PREFETCHES: 0 DROPPED PREFETCHES: 0
PSCL4 PREFETCHES SAME FILL-ORIGIN LEVEL: 0 DIFFERENT FILL-ORIGIN LEVEL: 0

PSCL3 TOTAL     ACCESS:     996661  HIT:     996661  MISS:          0  HIT %:        100  MISS %:          0   MPKI: 0
PSCL3 LOAD TRANSLATION ACCESS:     930363  HIT:     930363  MISS:          0  HIT %:        100  MISS %:          0   MPKI: 0
PSCL3 TRANSLATION FROM L1D PREFETCHER ACCESS:      66298  HIT:      66298  MISS:          0  HIT %:        100  MISS %:          0   MPKI: 0
PSCL3 PREFETCH  REQUESTED:          0  ISSUED:          0  USEFUL:          0  USELESS:          0
PSCL3 USEFUL LOAD PREFETCHES:          0 PREFETCH ISSUED TO LOWER LEVEL:          0  ACCURACY: -nan
PSCL3 TIMELY PREFETCHES:          0 LATE PREFETCHES: 0 DROPPED PREFETCHES: 0
PSCL3 PREFETCHES SAME FILL-ORIGIN LEVEL: 0 DIFFERENT FILL-ORIGIN LEVEL: 0

PSCL2 TOTAL     ACCESS:     966361  HIT:     915033  MISS:      51328  HIT %:    94.6885  MISS %:    5.31147   MPKI: 0.25664
PSCL2 LOAD TRANSLATION ACCESS:     930752  HIT:     879424  MISS:      51328  HIT %:    94.4853  MISS %:    5.51468   MPKI: 0.25664
PSCL2 TRANSLATION FROM L1D PREFETCHER ACCESS:      35609  HIT:      35609  MISS:          0  HIT %:        100  MISS %:          0   MPKI: 0
PSCL2 PREFETCH  REQUESTED:          0  ISSUED:          0  USEFUL:          0  USELESS:          0
PSCL2 USEFUL LOAD PREFETCHES:          0 PREFETCH ISSUED TO LOWER LEVEL:          0  ACCURACY: -nan
PSCL2 TIMELY PREFETCHES:          0 LATE PREFETCHES: 0 DROPPED PREFETCHES: 0
PSCL2 PREFETCHES SAME FILL-ORIGIN LEVEL: 0 DIFFERENT FILL-ORIGIN LEVEL: 0

LLC TOTAL     ACCESS:    6643564  HIT:    2933225  MISS:    3710339  HIT %:    44.1514  MISS %:    55.8486   MPKI: 18.5517
LLC LOAD      ACCESS:    3621750  HIT:     721313  MISS:    2900437  HIT %:    19.9161  MISS %:    80.0839   MPKI: 14.5022
LLC RFO       ACCESS:     634627  HIT:     118243  MISS:     516384  HIT %:    18.6319  MISS %:    81.3681   MPKI: 2.58192
LLC PREFETCH  ACCESS:     141043  HIT:       7106  MISS:     133937  HIT %:    5.03818  MISS %:    94.9618   MPKI: 0.669685
LLC WRITEBACK ACCESS:    1844505  HIT:    1759673  MISS:      84832  HIT %:    95.4008  MISS %:    4.59917   MPKI: 0.42416
LLC LOAD TRANSLATION ACCESS:     393830  HIT:     322724  MISS:      71106  HIT %:     81.945  MISS %:     18.055   MPKI: 0.35553
LLC TRANSLATION FROM L1D PREFETCHER ACCESS:       7809  HIT:       4166  MISS:       3643  HIT %:    53.3487  MISS %:    46.6513   MPKI: 0.018215
LLC PREFETCH  REQUESTED:          0  ISSUED:          0  USEFUL:      50311  USELESS:     496277
LLC USEFUL LOAD PREFETCHES:      50311 PREFETCH ISSUED TO LOWER LEVEL:     535692  ACCURACY: 9.39178
LLC TIMELY PREFETCHES:      50311 LATE PREFETCHES: 0 DROPPED PREFETCHES: 0
LLC PREFETCHES SAME FILL-ORIGIN LEVEL: 0 DIFFERENT FILL-ORIGIN LEVEL: 0
LLC AVERAGE MISS LATENCY: 1041.21 cycles
LLC RQ	ACCESS:   18663346	FORWARD:          0	MERGED:          0	TO_CACHE:   18663332
LLC WQ	ACCESS:    7392548	FORWARD:         14	MERGED:          0	TO_CACHE:    7392548
LLC PQ	ACCESS:     563840	FORWARD:          0	MERGED:          0	TO_CACHE:     563840

LLC Dense regions hint to LLC: 0

RAW hits: 4684863
Loads Generated: 59785341
Loads sent to L1D: 55100476
Stores Generated: 33675222
Stores sent to L1D: 33675222
Major fault: 0 Minor fault: 35399
Allocated PAGES: 141596

CPU 3 cumulative IPC: 0.222951 instructions: 200000001 cycles: 897056426
ITLB TOTAL     ACCESS:   34171302  HIT:   34099391  MISS:      71911  HIT %:    99.7896  MISS %:   0.210443   MPKI: 0.359555
ITLB LOAD TRANSLATION ACCESS:   34171302  HIT:   34099391  MISS:      71911  HIT %:    99.7896  MISS %:   0.210443   MPKI: 0.359555
ITLB PREFETCH  REQUESTED:          0  ISSUED:          0  USEFUL:          0  USELESS:          0
ITLB USEFUL LOAD PREFETCHES:          0 PREFETCH ISSUED TO LOWER LEVEL:          0  ACCURACY: -nan
ITLB TIMELY PREFETCHES:          0 LATE PREFETCHES: 0 DROPPED PREFETCHES: 0
ITLB PREFETCHES SAME FILL-ORIGIN LEVEL: 0 DIFFERENT FILL-ORIGIN LEVEL: 0
ITLB AVERAGE MISS LATENCY: 10.6481 cycles
ITLB RQ	ACCESS:   38644126	FORWARD:          0	MERGED:    4366235	TO_CACHE:   34277891

DTLB TOTAL     ACCESS:   56390754  HIT:   52536785  MISS:    3853969  HIT %:    93.1656  MISS %:     6.8344   MPKI: 19.2698
DTLB LOAD TRANSLATION ACCESS:   56390754  HIT:   52536785  MISS:    3853969  HIT %:    93.1656  MISS %:     6.8344   MPKI: 19.2698
DTLB PREFETCH  REQUESTED:          0  ISSUED:          0  USEFUL:          0  USELESS:          0
DTLB USEFUL LOAD PREFETCHES:          0 PREFETCH ISSUED TO LOWER LEVEL:          0  ACCURACY: -nan
DTLB TIMELY PREFETCHES:          0 LATE PREFETCHES: 0 DROPPED PREFETCHES: 0
DTLB PREFETCHES SAME FILL-ORIGIN LEVEL: 0 DIFFERENT FILL-ORIGIN LEVEL: 0
DTLB AVERAGE MISS LATENCY: 23.9926 cycles
DTLB RQ	ACCESS:   70273555	FORWARD:          0	MERGED:   13534775	TO_CACHE:   56738780

STLB TOTAL     ACCESS:    4042599  HIT:    3081258  MISS:     961341  HIT %:    76.2197  MISS %:    23.7803   MPKI: 4.8067
STLB LOAD TRANSLATION ACCESS:    3925880  HIT:    2995543  MISS:     930337  HIT %:    76.3025  MISS %:    23.6975   MPKI: 4.65168
STLB TRANSLATION FROM L1D PREFETCHER ACCESS:     116719  HIT:      85715  MISS:      31004  HIT %:    73.4371  MISS %:    26.5629   MPKI: 0.15502
STLB PREFETCH  REQUESTED:          0  ISSUED:          0  USEFUL:      24768  USELESS:       6284
STLB USEFUL LOAD PREFETCHES:      24768 PREFETCH ISSUED TO LOWER LEVEL:          0  ACCURACY: inf
STLB TIMELY PREFETCHES:      24768 LATE PREFETCHES: 13 DROPPED PREFETCHES: 35700
STLB PREFETCHES SAME FILL-ORIGIN LEVEL: 0 DIFFERENT FILL-ORIGIN LEVEL: 0
STLB AVERAGE MISS LATENCY: 61.9073 cycles
STLB RQ	ACCESS:    4162080	FORWARD:          0	MERGED:      73193	TO_CACHE:    4088887

STLB Hit, L1D data hit: 0
STLB Hit, L2C data hit: 0
STLB Hit, LLC data hit: 0
STLB Hit, LLC data miss: 0
STLB STLB hints to L2: 0
L1D TOTAL     ACCESS:   67658440  HIT:   62739609  MISS:    4918831  HIT %:    92.7299  MISS %:    7.27009   MPKI: 24.5942
L1D LOAD      ACCESS:   36334889  HIT:   32107387  MISS:    4227502  HIT %:    88.3652  MISS %:    11.6348   MPKI: 21.1375
L1D RFO       ACCESS:   31301707  HIT:   30617936  MISS:     683771  HIT %:    97.8155  MISS %:    2.18445   MPKI: 3.41885
L1D PREFETCH  ACCESS:      21844  HIT:      14286  MISS:       7558  HIT %:    65.4001  MISS %:    34.5999   MPKI: 0.03779
L1D PREFETCH  REQUESTED:     456893  ISSUED:     456655  USEFUL:       4264  USELESS:       3294
L1D USEFUL LOAD PREFETCHES:       4264 PREFETCH ISSUED TO LOWER LEVEL:     172612  ACCURACY: 2.47028
L1D TIMELY PREFETCHES:       4264 LATE PREFETCHES: 17 DROPPED PREFETCHES: 39434
L1D PREFETCHES SAME FILL-ORIGIN LEVEL: 7575 DIFFERENT FILL-ORIGIN LEVEL: 165037
L1D AVERAGE MISS LATENCY: 222.941 cycles
L1D RQ	ACCESS:   55224726	FORWARD:          0	MERGED:   16631535	TO_CACHE:   37152866
L1D WQ	ACCESS:   33740187	FORWARD:    1440325	MERGED:     619498	TO_CACHE:   33120689
L1D PQ	ACCESS:     230094	FORWARD:          0	MERGED:       3533	TO_CACHE:     226561

L1D UNIQUE REGIONS ACCESSED: 0
L1D REGIONS CONFLICTS: 0
L1D Cross Page Prefetch Requests: 215691
L1D Same Page Prefetch Requests: 83784
L1D ROI Sum of L1D PQ occupancy: 8653456
L1D PREFETCHES PUSHED FROM L2C: 0
L1I TOTAL     ACCESS:   38558940  HIT:   38553945  MISS:       4995  HIT %:     99.987  MISS %:  0.0129542   MPKI: 0.024975
L1I LOAD      ACCESS:   38558940  HIT:   38553945  MISS:       4995  HIT %:     99.987  MISS %:  0.0129542   MPKI: 0.024975
L1I PREFETCH  REQUESTED:          0  ISSUED:          0  USEFUL:          0  USELESS:          0
L1I USEFUL LOAD PREFETCHES:          0 PREFETCH ISSUED TO LOWER LEVEL:          0  ACCURACY: -nan
L1I TIMELY PREFETCHES:          0 LATE PREFETCHES: 0 DROPPED PREFETCHES: 0
L1I PREFETCHES SAME FILL-ORIGIN LEVEL: 0 DIFFERENT FILL-ORIGIN LEVEL: 0
L1I AVERAGE MISS LATENCY: 226.406 cycles
L1I RQ	ACCESS:   59281696	FORWARD:          0	MERGED:   20637570	TO_CACHE:   38644126

BTB TOTAL     ACCESS:   40342080  HIT:   38250300  MISS:    2091780  HIT %:    94.8149  MISS %:    5.18511   MPKI: 10.4589
BTB BRANCH_DIRECT_JUMP	ACCESS:    3899459  HIT:    3899226  MISS:        233
BTB BRANCH_INDIRECT	ACCESS:     593469  HIT:     495675  MISS:      97794
BTB BRANCH_CONDITIONAL	ACCESS:   23958760  HIT:   23958212  MISS:        548
BTB BRANCH_DIRECT_CALL	ACCESS:    5117697  HIT:    5117361  MISS:        336
BTB BRANCH_INDIRECT_CALL	ACCESS:     827496  HIT:     823012  MISS:       4484
BTB BRANCH_RETURN	ACCESS:    5945199  HIT:    3956814  MISS:    1988385
BTB BRANCH_OTHER ACCESS:          0  HIT:          0  MISS:          0

L2C TOTAL     ACCESS:    8279244  HIT:    3324186  MISS:    4955058  HIT %:    40.1508  MISS %:    59.8492   MPKI: 24.7753
L2C LOAD      ACCESS:    4232395  HIT:     609006  MISS:    3623389  HIT %:    14.3892  MISS %:    85.6108   MPKI: 18.1169
L2C DATA LOAD MPKI: 18.0946
L2C INSTRUCTION LOAD MPKI: 0.02231
L2C RFO       ACCESS:     683771  HIT:      48965  MISS:     634806  HIT %:    7.16102  MISS %:     92.839   MPKI: 3.17403
L2C PREFETCH  ACCESS:     168946  HIT:      28193  MISS:     140753  HIT %:    16.6876  MISS %:    83.3124   MPKI: 0.703765
L2C DATA PREFETCH MPKI: 0.703765
L2C INSTRUCTION PREFETCH MPKI: 0
L2C WRITEBACK ACCESS:    2115236  HIT:    1962767  MISS:     152469  HIT %:    92.7919  MISS %:    7.20813   MPKI: 0.762345
L2C LOAD TRANSLATION ACCESS:     981599  HIT:     585754  MISS:     395845  HIT %:    59.6735  MISS %:    40.3265   MPKI: 1.97922
L2C TRANSLATION FROM L1D PREFETCHER ACCESS:      97297  HIT:      89501  MISS:       7796  HIT %:    91.9874  MISS %:    8.01258   MPKI: 0.03898
L2C PREFETCH  REQUESTED:          0  ISSUED:          0  USEFUL:      56484  USELESS:      92225
L2C USEFUL LOAD PREFETCHES:      56484 PREFETCH ISSUED TO LOWER LEVEL:     142273  ACCURACY: 39.7011
L2C TIMELY PREFETCHES:      56484 LATE PREFETCHES: 1394 DROPPED PREFETCHES: 0
L2C PREFETCHES SAME FILL-ORIGIN LEVEL: 137354 DIFFERENT FILL-ORIGIN LEVEL: 0
L2C AVERAGE MISS LATENCY: 223.985 cycles
L2C RQ	ACCESS:    6005785	FORWARD:          0	MERGED:          0	TO_CACHE:    6005700
L2C WQ	ACCESS:    2119012	FORWARD:         85	MERGED:          0	TO_CACHE:    2119012
L2C PQ	ACCESS:     172612	FORWARD:          0	MERGED:          4	TO_CACHE:     172608

L2C Instructions Evicting Data 4105
L2C Translations Evicting Data 367200
L2C Data Evicting Data 4044390
L2C Instructions Evicting Instructions 36
L2C Translations Evicting Instructions 340
L2C Data Evicting Instructions 3964
L2C Instructions Evicting Translations 321
L2C Translations Evicting Translations 36561
L2C Data Evicting Translations 354771
L2C Dense regions hint from L2: 0
PSCL5 TOTAL     ACCESS:     997035  HIT:     997035  MISS:          0  HIT %:        100  MISS %:          0   MPKI: 0
PSCL5 LOAD TRANSLATION ACCESS:     930325  HIT:     930325  MISS:          0  HIT %:        100  MISS %:          0   MPKI: 0
PSCL5 TRANSLATION FROM L1D PREFETCHER ACCESS:      66710  HIT:      66710  MISS:          0  HIT %:        100  MISS %:          0   MPKI: 0
PSCL5 PREFETCH  REQUESTED:          0  ISSUED:          0  USEFUL:          0  USELESS:          0
PSCL5 USEFUL LOAD PREFETCHES:          0 PREFETCH ISSUED TO LOWER LEVEL:          0  ACCURACY: -nan
PSCL5 TIMELY PREFETCHES:          0 LATE PREFETCHES: 0 DROPPED PREFETCHES: 0
PSCL5 PREFETCHES SAME FILL-ORIGIN LEVEL: 0 DIFFERENT FILL-ORIGIN LEVEL: 0

PSCL4 TOTAL     ACCESS:     997035  HIT:     997035  MISS:          0  HIT %:        100  MISS %:          0   MPKI: 0
PSCL4 LOAD TRANSLATION ACCESS:     930325  HIT:     930325  MISS:          0  HIT %:        100  MISS %:          0   MPKI: 0
PSCL4 TRANSLATION FROM L1D PREFETCHER ACCESS:      66710  HIT:      66710  MISS:          0  HIT %:        100  MISS %:          0   MPKI: 0
PSCL4 PREFETCH  REQUESTED:          0  ISSUED:          0  USEFUL:          0  USELESS:          0
PSCL4 USEFUL LOAD PREFETCHES:          0 PREFETCH ISSUED TO LOWER LEVEL:          0  ACCURACY: -nan
PSCL4 TIMELY PREFETCHES:          0 LATE PREFETCHES: 0 DROPPED PREFETCHES: 0
PSCL4 PREFETCHES SAME FILL-ORIGIN LEVEL: 0 DIFFERENT FILL-ORIGIN LEVEL: 0

PSCL3 TOTAL     ACCESS:     997035  HIT:     997035  MISS:          0  HIT %:        100  MISS %:          0   MPKI: 0
PSCL3 LOAD TRANSLATION ACCESS:     930325  HIT:     930325  MISS:          0  HIT %:        100  MISS %:          0   MPKI: 0
PSCL3 TRANSLATION FROM L1D PREFETCHER ACCESS:      66710  HIT:      66710  MISS:          0  HIT %:        100  MISS %:          0   MPKI: 0
PSCL3 PREFETCH  REQUESTED:          0  ISSUED:          0  USEFUL:          0  USELESS:          0
PSCL3 USEFUL LOAD PREFETCHES:          0 PREFETCH ISSUED TO LOWER LEVEL:          0  ACCURACY: -nan
PSCL3 TIMELY PREFETCHES:          0 LATE PREFETCHES: 0 DROPPED PREFETCHES: 0
PSCL3 PREFETCHES SAME FILL-ORIGIN LEVEL: 0 DIFFERENT FILL-ORIGIN LEVEL: 0

PSCL2 TOTAL     ACCESS:     966884  HIT:     915171  MISS:      51713  HIT %:    94.6516  MISS %:    5.34842   MPKI: 0.258565
PSCL2 LOAD TRANSLATION ACCESS:     930761  HIT:     879048  MISS:      51713  HIT %:     94.444  MISS %:    5.55599   MPKI: 0.258565
PSCL2 TRANSLATION FROM L1D PREFETCHER ACCESS:      36123  HIT:      36123  MISS:          0  HIT %:        100  MISS %:          0   MPKI: 0
PSCL2 PREFETCH  REQUESTED:          0  ISSUED:          0  USEFUL:          0  USELESS:          0
PSCL2 USEFUL LOAD PREFETCHES:          0 PREFETCH ISSUED TO LOWER LEVEL:          0  ACCURACY: -nan
PSCL2 TIMELY PREFETCHES:          0 LATE PREFETCHES: 0 DROPPED PREFETCHES: 0
PSCL2 PREFETCHES SAME FILL-ORIGIN LEVEL: 0 DIFFERENT FILL-ORIGIN LEVEL: 0

LLC TOTAL     ACCESS:    6648968  HIT:    2944517  MISS:    3704451  HIT %:    44.2853  MISS %:    55.7147   MPKI: 18.5223
LLC LOAD      ACCESS:    3622062  HIT:     726983  MISS:    2895079  HIT %:     20.071  MISS %:     79.929   MPKI: 14.4754
LLC RFO       ACCESS:     634737  HIT:     118105  MISS:     516632  HIT %:    18.6069  MISS %:    81.3931   MPKI: 2.58316
LLC PREFETCH  ACCESS:     142147  HIT:       7038  MISS:     135109  HIT %:    4.95121  MISS %:    95.0488   MPKI: 0.675545
LLC WRITEBACK ACCESS:    1846381  HIT:    1760832  MISS:      85549  HIT %:    95.3667  MISS %:    4.63333   MPKI: 0.427745
LLC LOAD TRANSLATION ACCESS:     395845  HIT:     327399  MISS:      68446  HIT %:    82.7089  MISS %:    17.2911   MPKI: 0.34223
LLC TRANSLATION FROM L1D PREFETCHER ACCESS:       7796  HIT:       4160  MISS:       3636  HIT %:    53.3607  MISS %:    46.6393   MPKI: 0.01818
LLC PREFETCH  REQUESTED:          0  ISSUED:          0  USEFUL:      50311  USELESS:     496277
LLC USEFUL LOAD PREFETCHES:      50311 PREFETCH ISSUED TO LOWER LEVEL:     535692  ACCURACY: 9.39178
LLC TIMELY PREFETCHES:      50311 LATE PREFETCHES: 0 DROPPED PREFETCHES: 0
LLC PREFETCHES SAME FILL-ORIGIN LEVEL: 0 DIFFERENT FILL-ORIGIN LEVEL: 0
LLC AVERAGE MISS LATENCY: 1042.87 cycles
LLC RQ	ACCESS:   18663346	FORWARD:          0	MERGED:          0	TO_CACHE:   18663332
LLC WQ	ACCESS:    7392548	FORWARD:         14	MERGED:          0	TO_CACHE:    7392548
LLC PQ	ACCESS:     563840	FORWARD:          0	MERGED:          0	TO_CACHE:     563840

LLC Dense regions hint to LLC: 0

RAW hits: 4684749
Loads Generated: 59784168
Loads sent to L1D: 55099419
Stores Generated: 33676559
Stores sent to L1D: 33676568
Major fault: 0 Minor fault: 35399
Allocated PAGES: 141596

DRAM Statistics
 CHANNEL 0
 RQ ROW_BUFFER_HIT:     369841  ROW_BUFFER_MISS:   14127473
 DBUS_CONGESTED:        142
 WQ ROW_BUFFER_HIT:     594936  ROW_BUFFER_MISS:    5312862  FULL:          0

 AVG_CONGESTED_CYCLE: 5
 All warmup complete: 5
Channel 0 Bank busy for read cycles: 0
Channel 0 Bank busy for write cycles: 0
Channel 0
Rank 0
0banks busy for read cycles: 951233
0banks busy for write cycles: 699
1banks busy for read cycles: 98298188
1banks busy for write cycles: 1075593
2banks busy for read cycles: 167497895
2banks busy for write cycles: 1064571
3banks busy for read cycles: 177835175
3banks busy for write cycles: 1068710
4banks busy for read cycles: 137499064
4banks busy for write cycles: 1078099
5banks busy for read cycles: 80053043
5banks busy for write cycles: 1198533
6banks busy for read cycles: 34804596
6banks busy for write cycles: 3145284
7banks busy for read cycles: 10486583
7banks busy for write cycles: 29433637
8banks busy for read cycles: 1847848
8banks busy for write cycles: 151204588

CPU 0 Branch Prediction Accuracy: 98.5368% MPKI: 3.53359 Average ROB Occupancy at Mispredict: 66.2956
Branch types
NOT_BRANCH: 152181774 75.839%
BRANCH_DIRECT_JUMP: 3913245 1.95015%
BRANCH_INDIRECT: 595481 0.296755%
BRANCH_CONDITIONAL: 32043695 15.9688%
BRANCH_DIRECT_CALL: 5133843 2.55842%
BRANCH_INDIRECT_CALL: 831263 0.414256%
BRANCH_RETURN: 5965114 2.97268%
BRANCH_OTHER: 0 0%


CPU 1 Branch Prediction Accuracy: 98.5367% MPKI: 3.53416 Average ROB Occupancy at Mispredict: 66.2539
Branch types
NOT_BRANCH: 151792872 75.842%
BRANCH_DIRECT_JUMP: 3902362 1.94978%
BRANCH_INDIRECT: 593785 0.29668%
BRANCH_CONDITIONAL: 31956301 15.9667%
BRANCH_DIRECT_CALL: 5120607 2.55847%
BRANCH_INDIRECT_CALL: 828382 0.413894%
BRANCH_RETURN: 5948997 2.97237%
BRANCH_OTHER: 0 0%


CPU 2 Branch Prediction Accuracy: 98.5363% MPKI: 3.53541 Average ROB Occupancy at Mispredict: 66.2184
Branch types
NOT_BRANCH: 151685954 75.843%
BRANCH_DIRECT_JUMP: 3899556 1.94978%
BRANCH_INDIRECT: 593486 0.296743%
BRANCH_CONDITIONAL: 31931334 15.9657%
BRANCH_DIRECT_CALL: 5117457 2.55873%
BRANCH_INDIRECT_CALL: 827565 0.413782%
BRANCH_RETURN: 5945025 2.97251%
BRANCH_OTHER: 0 0%


CPU 3 Branch Prediction Accuracy: 98.5374% MPKI: 3.53336 Average ROB Occupancy at Mispredict: 66.2868
Branch types
NOT_BRANCH: 152012897 75.8415%
BRANCH_DIRECT_JUMP: 3907688 1.9496%
BRANCH_INDIRECT: 594336 0.296523%
BRANCH_CONDITIONAL: 32004191 15.9674%
BRANCH_DIRECT_CALL: 5127946 2.55841%
BRANCH_INDIRECT_CALL: 829767 0.413983%
BRANCH_RETURN: 5957716 2.97239%
BRANCH_OTHER: 0 0%

DRAM PAGES: 1048576
Allocated PAGES: 141596
