
*** ChampSim Multicore Out-of-Order Simulator ***

Warmup Instructions: 50000000
Simulation Instructions: 200000000
Number of CPUs: 4
LLC sets: 8192
LLC ways: 16
Off-chip DRAM Size: 4096 MB Channels: 1 Width: 64-bit Data Rate: 6400 MT/s
CPU 0 runs ./traces/ligra/ligra_Components.com-lj.ungraph.gcc_6.3.0_O3.drop_22750M.length_250M.champsimtrace.xz
.xz
CPU 1 runs ./traces/ligra/ligra_Components.com-lj.ungraph.gcc_6.3.0_O3.drop_22750M.length_250M.champsimtrace.xz
.xz
CPU 2 runs ./traces/ligra/ligra_Components.com-lj.ungraph.gcc_6.3.0_O3.drop_22750M.length_250M.champsimtrace.xz
.xz
CPU 3 runs ./traces/ligra/ligra_Components.com-lj.ungraph.gcc_6.3.0_O3.drop_22750M.length_250M.champsimtrace.xz
.xz
BTB has LRU replacement policy
ITLB has LRU replacement policy
DTLB has LRU replacement policy
STLB has LRU replacement policy
L1I has LRU replacement policy
History Sets: 8
History Ways: 16
BERTI Size: 16
BERTI Stride Size: 8
L1D has LRU replacement policy
Initialize SRRIP state for L2C
Initialize DRRIP state for LLC
BTB has LRU replacement policy
ITLB has LRU replacement policy
DTLB has LRU replacement policy
STLB has LRU replacement policy
L1I has LRU replacement policy
History Sets: 8
History Ways: 16
BERTI Size: 16
BERTI Stride Size: 8
L1D has LRU replacement policy
Initialize SRRIP state for L2C
Initialize DRRIP state for LLC
BTB has LRU replacement policy
ITLB has LRU replacement policy
DTLB has LRU replacement policy
STLB has LRU replacement policy
L1I has LRU replacement policy
History Sets: 8
History Ways: 16
BERTI Size: 16
BERTI Stride Size: 8
L1D has LRU replacement policy
Initialize SRRIP state for L2C
Initialize DRRIP state for LLC
BTB has LRU replacement policy
ITLB has LRU replacement policy
DTLB has LRU replacement policy
STLB has LRU replacement policy
L1I has LRU replacement policy
History Sets: 8
History Ways: 16
BERTI Size: 16
BERTI Stride Size: 8
L1D has LRU replacement policy
Initialize SRRIP state for L2C
Initialize DRRIP state for LLC
Heartbeat CPU 0 instructions: 10000003 cycles: 2993461 heartbeat IPC: 3.34062 cumulative IPC: 3.34062 (Simulation time: 0 hr 3 min 38 sec) 
Heartbeat CPU 1 instructions: 10000003 cycles: 2993751 heartbeat IPC: 3.34029 cumulative IPC: 3.34029 (Simulation time: 0 hr 3 min 38 sec) 
Heartbeat CPU 2 instructions: 10000003 cycles: 2994516 heartbeat IPC: 3.33944 cumulative IPC: 3.33944 (Simulation time: 0 hr 3 min 38 sec) 
Heartbeat CPU 3 instructions: 10000003 cycles: 2995115 heartbeat IPC: 3.33877 cumulative IPC: 3.33877 (Simulation time: 0 hr 3 min 38 sec) 
Heartbeat CPU 0 instructions: 20000003 cycles: 5990886 heartbeat IPC: 3.3362 cumulative IPC: 3.3384 (Simulation time: 0 hr 7 min 21 sec) 
Heartbeat CPU 1 instructions: 20000003 cycles: 5991269 heartbeat IPC: 3.33609 cumulative IPC: 3.33819 (Simulation time: 0 hr 7 min 21 sec) 
Heartbeat CPU 2 instructions: 20000003 cycles: 5992677 heartbeat IPC: 3.33538 cumulative IPC: 3.33741 (Simulation time: 0 hr 7 min 21 sec) 
Heartbeat CPU 3 instructions: 20000003 cycles: 5994121 heartbeat IPC: 3.33444 cumulative IPC: 3.3366 (Simulation time: 0 hr 7 min 21 sec) 
Heartbeat CPU 0 instructions: 30000002 cycles: 8978298 heartbeat IPC: 3.34738 cumulative IPC: 3.34139 (Simulation time: 0 hr 10 min 58 sec) 
Heartbeat CPU 1 instructions: 30000002 cycles: 8978666 heartbeat IPC: 3.3474 cumulative IPC: 3.34125 (Simulation time: 0 hr 10 min 58 sec) 
Heartbeat CPU 2 instructions: 30000002 cycles: 8981253 heartbeat IPC: 3.34607 cumulative IPC: 3.34029 (Simulation time: 0 hr 10 min 59 sec) 
Heartbeat CPU 3 instructions: 30000002 cycles: 8983391 heartbeat IPC: 3.3453 cumulative IPC: 3.3395 (Simulation time: 0 hr 10 min 59 sec) 
Heartbeat CPU 0 instructions: 40000000 cycles: 11958245 heartbeat IPC: 3.35576 cumulative IPC: 3.34497 (Simulation time: 0 hr 14 min 45 sec) 
Heartbeat CPU 1 instructions: 40000000 cycles: 11958612 heartbeat IPC: 3.35576 cumulative IPC: 3.34487 (Simulation time: 0 hr 14 min 45 sec) 
Heartbeat CPU 2 instructions: 40000000 cycles: 11962239 heartbeat IPC: 3.35459 cumulative IPC: 3.34386 (Simulation time: 0 hr 14 min 45 sec) 
Heartbeat CPU 3 instructions: 40000000 cycles: 11965288 heartbeat IPC: 3.35357 cumulative IPC: 3.343 (Simulation time: 0 hr 14 min 45 sec) 
Heartbeat CPU 0 instructions: 50000000 cycles: 14934351 heartbeat IPC: 3.3601 cumulative IPC: 3.34799 (Simulation time: 0 hr 18 min 27 sec) 
Heartbeat CPU 1 instructions: 50000000 cycles: 14934827 heartbeat IPC: 3.35997 cumulative IPC: 3.34788 (Simulation time: 0 hr 18 min 27 sec) 
Heartbeat CPU 2 instructions: 50000000 cycles: 14939501 heartbeat IPC: 3.35879 cumulative IPC: 3.34683 (Simulation time: 0 hr 18 min 27 sec) 
Heartbeat CPU 3 instructions: 50000000 cycles: 14943527 heartbeat IPC: 3.35769 cumulative IPC: 3.34593 (Simulation time: 0 hr 18 min 27 sec) 

Warmup complete CPU 0 instructions: 50022209 cycles: 14943528 (Simulation time: 0 hr 18 min 27 sec) 
Warmup complete CPU 1 instructions: 50020974 cycles: 14943528 (Simulation time: 0 hr 18 min 27 sec) 
Warmup complete CPU 2 instructions: 50009430 cycles: 14943528 (Simulation time: 0 hr 18 min 27 sec) 
Warmup complete CPU 3 instructions: 50000004 cycles: 14943528 (Simulation time: 0 hr 18 min 27 sec) 

Heartbeat CPU 0 instructions: 60000001 cycles: 49345466 heartbeat IPC: 0.290604 cumulative IPC: 0.290036 (Simulation time: 0 hr 23 min 6 sec) 
Heartbeat CPU 2 instructions: 60000001 cycles: 49443179 heartbeat IPC: 0.289824 cumulative IPC: 0.289585 (Simulation time: 0 hr 23 min 7 sec) 
Heartbeat CPU 1 instructions: 60000001 cycles: 49454061 heartbeat IPC: 0.289694 cumulative IPC: 0.289159 (Simulation time: 0 hr 23 min 7 sec) 
Heartbeat CPU 3 instructions: 60000001 cycles: 49502881 heartbeat IPC: 0.289357 cumulative IPC: 0.289357 (Simulation time: 0 hr 23 min 7 sec) 
Heartbeat CPU 0 instructions: 70000003 cycles: 89561414 heartbeat IPC: 0.248658 cumulative IPC: 0.267735 (Simulation time: 0 hr 28 min 25 sec) 
Heartbeat CPU 2 instructions: 70000002 cycles: 89742879 heartbeat IPC: 0.248141 cumulative IPC: 0.267256 (Simulation time: 0 hr 28 min 27 sec) 
Heartbeat CPU 1 instructions: 70000003 cycles: 89765255 heartbeat IPC: 0.24807 cumulative IPC: 0.267022 (Simulation time: 0 hr 28 min 27 sec) 
Heartbeat CPU 3 instructions: 70000003 cycles: 89867226 heartbeat IPC: 0.247743 cumulative IPC: 0.266938 (Simulation time: 0 hr 28 min 28 sec) 
Heartbeat CPU 0 instructions: 80000001 cycles: 123933409 heartbeat IPC: 0.290934 cumulative IPC: 0.275051 (Simulation time: 0 hr 33 min 20 sec) 
Heartbeat CPU 2 instructions: 80000001 cycles: 124164055 heartbeat IPC: 0.290519 cumulative IPC: 0.274587 (Simulation time: 0 hr 33 min 22 sec) 
Heartbeat CPU 1 instructions: 80000001 cycles: 124254985 heartbeat IPC: 0.289941 cumulative IPC: 0.274253 (Simulation time: 0 hr 33 min 23 sec) 
Heartbeat CPU 3 instructions: 80000001 cycles: 124257099 heartbeat IPC: 0.290783 cumulative IPC: 0.27444 (Simulation time: 0 hr 33 min 23 sec) 
Heartbeat CPU 0 instructions: 90000002 cycles: 165595771 heartbeat IPC: 0.240025 cumulative IPC: 0.265365 (Simulation time: 0 hr 38 min 49 sec) 
Heartbeat CPU 2 instructions: 90000002 cycles: 165980713 heartbeat IPC: 0.239139 cumulative IPC: 0.264773 (Simulation time: 0 hr 38 min 52 sec) 
Heartbeat CPU 1 instructions: 90000002 cycles: 166074413 heartbeat IPC: 0.239123 cumulative IPC: 0.264532 (Simulation time: 0 hr 38 min 52 sec) 
Heartbeat CPU 3 instructions: 90000002 cycles: 166248937 heartbeat IPC: 0.238142 cumulative IPC: 0.264366 (Simulation time: 0 hr 38 min 54 sec) 
Heartbeat CPU 0 instructions: 100000001 cycles: 210860727 heartbeat IPC: 0.220921 cumulative IPC: 0.255096 (Simulation time: 0 hr 43 min 52 sec) 
Heartbeat CPU 2 instructions: 100000001 cycles: 211389558 heartbeat IPC: 0.220221 cumulative IPC: 0.254475 (Simulation time: 0 hr 43 min 55 sec) 
Heartbeat CPU 1 instructions: 100000000 cycles: 211450784 heartbeat IPC: 0.220379 cumulative IPC: 0.254337 (Simulation time: 0 hr 43 min 55 sec) 
Heartbeat CPU 3 instructions: 100000000 cycles: 211631671 heartbeat IPC: 0.220348 cumulative IPC: 0.25421 (Simulation time: 0 hr 43 min 56 sec) 
Heartbeat CPU 0 instructions: 110000000 cycles: 255320558 heartbeat IPC: 0.224922 cumulative IPC: 0.249515 (Simulation time: 0 hr 49 min 1 sec) 
Heartbeat CPU 2 instructions: 110000000 cycles: 255859109 heartbeat IPC: 0.224873 cumulative IPC: 0.249011 (Simulation time: 0 hr 49 min 5 sec) 
Heartbeat CPU 1 instructions: 110000000 cycles: 256004275 heartbeat IPC: 0.224449 cumulative IPC: 0.248813 (Simulation time: 0 hr 49 min 6 sec) 
Heartbeat CPU 3 instructions: 110000000 cycles: 256260437 heartbeat IPC: 0.224071 cumulative IPC: 0.248636 (Simulation time: 0 hr 49 min 7 sec) 
Heartbeat CPU 0 instructions: 120000002 cycles: 301193741 heartbeat IPC: 0.217992 cumulative IPC: 0.244464 (Simulation time: 0 hr 53 min 58 sec) 
Heartbeat CPU 2 instructions: 120000002 cycles: 301758132 heartbeat IPC: 0.21787 cumulative IPC: 0.244027 (Simulation time: 0 hr 54 min 2 sec) 
Heartbeat CPU 1 instructions: 120000002 cycles: 301940469 heartbeat IPC: 0.217693 cumulative IPC: 0.243832 (Simulation time: 0 hr 54 min 3 sec) 
Heartbeat CPU 3 instructions: 120000002 cycles: 302209497 heartbeat IPC: 0.217632 cumulative IPC: 0.243677 (Simulation time: 0 hr 54 min 5 sec) 
Heartbeat CPU 0 instructions: 130000003 cycles: 346435800 heartbeat IPC: 0.221033 cumulative IPC: 0.241266 (Simulation time: 0 hr 59 min 6 sec) 
Heartbeat CPU 2 instructions: 130000003 cycles: 347024248 heartbeat IPC: 0.220916 cumulative IPC: 0.240877 (Simulation time: 0 hr 59 min 10 sec) 
Heartbeat CPU 1 instructions: 130000003 cycles: 347316373 heartbeat IPC: 0.220381 cumulative IPC: 0.24063 (Simulation time: 0 hr 59 min 12 sec) 
Heartbeat CPU 3 instructions: 130000003 cycles: 347550699 heartbeat IPC: 0.22055 cumulative IPC: 0.240524 (Simulation time: 0 hr 59 min 14 sec) 
Heartbeat CPU 0 instructions: 140000003 cycles: 391799383 heartbeat IPC: 0.220441 cumulative IPC: 0.238759 (Simulation time: 1 hr 4 min 22 sec) 
Heartbeat CPU 2 instructions: 140000003 cycles: 392494744 heartbeat IPC: 0.219923 cumulative IPC: 0.238353 (Simulation time: 1 hr 4 min 25 sec) 
Heartbeat CPU 1 instructions: 140000003 cycles: 392839049 heartbeat IPC: 0.219671 cumulative IPC: 0.238106 (Simulation time: 1 hr 4 min 27 sec) 
Heartbeat CPU 3 instructions: 140000003 cycles: 393032481 heartbeat IPC: 0.219868 cumulative IPC: 0.238039 (Simulation time: 1 hr 4 min 28 sec) 
Heartbeat CPU 0 instructions: 150000000 cycles: 438054009 heartbeat IPC: 0.216195 cumulative IPC: 0.236292 (Simulation time: 1 hr 9 min 50 sec) 
Heartbeat CPU 2 instructions: 150000000 cycles: 438803865 heartbeat IPC: 0.21594 cumulative IPC: 0.235905 (Simulation time: 1 hr 9 min 56 sec) 
Heartbeat CPU 1 instructions: 150000000 cycles: 439243454 heartbeat IPC: 0.215497 cumulative IPC: 0.235633 (Simulation time: 1 hr 9 min 59 sec) 
Heartbeat CPU 3 instructions: 150000000 cycles: 439350213 heartbeat IPC: 0.2159 cumulative IPC: 0.235623 (Simulation time: 1 hr 10 min 0 sec) 
Heartbeat CPU 0 instructions: 160000000 cycles: 483972610 heartbeat IPC: 0.217777 cumulative IPC: 0.23448 (Simulation time: 1 hr 15 min 4 sec) 
Heartbeat CPU 2 instructions: 160000000 cycles: 484868504 heartbeat IPC: 0.217086 cumulative IPC: 0.23406 (Simulation time: 1 hr 15 min 10 sec) 
Heartbeat CPU 1 instructions: 160000000 cycles: 485265534 heartbeat IPC: 0.217287 cumulative IPC: 0.233838 (Simulation time: 1 hr 15 min 13 sec) 
Heartbeat CPU 3 instructions: 160000000 cycles: 485496003 heartbeat IPC: 0.216704 cumulative IPC: 0.233768 (Simulation time: 1 hr 15 min 15 sec) 
Heartbeat CPU 0 instructions: 170000001 cycles: 532336500 heartbeat IPC: 0.206766 cumulative IPC: 0.231889 (Simulation time: 1 hr 20 min 26 sec) 
Heartbeat CPU 2 instructions: 170000001 cycles: 533227195 heartbeat IPC: 0.206788 cumulative IPC: 0.231515 (Simulation time: 1 hr 20 min 31 sec) 
Heartbeat CPU 1 instructions: 170000001 cycles: 533701106 heartbeat IPC: 0.20646 cumulative IPC: 0.231281 (Simulation time: 1 hr 20 min 34 sec) 
Heartbeat CPU 3 instructions: 170000001 cycles: 533962947 heartbeat IPC: 0.206326 cumulative IPC: 0.231205 (Simulation time: 1 hr 20 min 36 sec) 
Heartbeat CPU 0 instructions: 180000003 cycles: 583913534 heartbeat IPC: 0.193885 cumulative IPC: 0.228444 (Simulation time: 1 hr 25 min 54 sec) 
Heartbeat CPU 2 instructions: 180000000 cycles: 584848026 heartbeat IPC: 0.19372 cumulative IPC: 0.228092 (Simulation time: 1 hr 26 min 0 sec) 
Heartbeat CPU 1 instructions: 180000000 cycles: 585285385 heartbeat IPC: 0.193857 cumulative IPC: 0.227897 (Simulation time: 1 hr 26 min 2 sec) 
Heartbeat CPU 3 instructions: 180000000 cycles: 585554367 heartbeat IPC: 0.193831 cumulative IPC: 0.227826 (Simulation time: 1 hr 26 min 4 sec) 
Heartbeat CPU 0 instructions: 190000003 cycles: 631941891 heartbeat IPC: 0.20821 cumulative IPC: 0.226869 (Simulation time: 1 hr 30 min 50 sec) 
Heartbeat CPU 2 instructions: 190000003 cycles: 632811610 heartbeat IPC: 0.208492 cumulative IPC: 0.22657 (Simulation time: 1 hr 30 min 56 sec) 
Heartbeat CPU 1 instructions: 190000003 cycles: 633241922 heartbeat IPC: 0.208522 cumulative IPC: 0.226394 (Simulation time: 1 hr 30 min 58 sec) 
Heartbeat CPU 3 instructions: 190000003 cycles: 633604474 heartbeat IPC: 0.208116 cumulative IPC: 0.226295 (Simulation time: 1 hr 31 min 1 sec) 
Heartbeat CPU 0 instructions: 200000001 cycles: 681896423 heartbeat IPC: 0.200182 cumulative IPC: 0.22487 (Simulation time: 1 hr 35 min 57 sec) 
Heartbeat CPU 2 instructions: 200000001 cycles: 682776506 heartbeat IPC: 0.20014 cumulative IPC: 0.224593 (Simulation time: 1 hr 36 min 1 sec) 
Heartbeat CPU 1 instructions: 200000001 cycles: 683211987 heartbeat IPC: 0.20012 cumulative IPC: 0.224429 (Simulation time: 1 hr 36 min 4 sec) 
Heartbeat CPU 3 instructions: 200000001 cycles: 683635412 heartbeat IPC: 0.199876 cumulative IPC: 0.224319 (Simulation time: 1 hr 36 min 6 sec) 
Heartbeat CPU 0 instructions: 210000000 cycles: 730864489 heartbeat IPC: 0.204215 cumulative IPC: 0.223457 (Simulation time: 1 hr 40 min 42 sec) 
Heartbeat CPU 2 instructions: 210000000 cycles: 731764527 heartbeat IPC: 0.204132 cumulative IPC: 0.223195 (Simulation time: 1 hr 40 min 54 sec) 
Heartbeat CPU 1 instructions: 210000000 cycles: 732186808 heartbeat IPC: 0.204187 cumulative IPC: 0.223047 (Simulation time: 1 hr 41 min 2 sec) 
Heartbeat CPU 3 instructions: 210000000 cycles: 732404691 heartbeat IPC: 0.205047 cumulative IPC: 0.223009 (Simulation time: 1 hr 41 min 6 sec) 
Heartbeat CPU 0 instructions: 220000000 cycles: 778733016 heartbeat IPC: 0.208906 cumulative IPC: 0.222545 (Simulation time: 1 hr 45 min 54 sec) 
Heartbeat CPU 2 instructions: 220000000 cycles: 779858112 heartbeat IPC: 0.207928 cumulative IPC: 0.222235 (Simulation time: 1 hr 46 min 1 sec) 
Heartbeat CPU 1 instructions: 220000000 cycles: 780443921 heartbeat IPC: 0.207223 cumulative IPC: 0.22205 (Simulation time: 1 hr 46 min 5 sec) 
Heartbeat CPU 3 instructions: 220000000 cycles: 780600625 heartbeat IPC: 0.207486 cumulative IPC: 0.222032 (Simulation time: 1 hr 46 min 6 sec) 
Heartbeat CPU 0 instructions: 230000000 cycles: 832998488 heartbeat IPC: 0.184279 cumulative IPC: 0.220007 (Simulation time: 1 hr 51 min 6 sec) 
Heartbeat CPU 2 instructions: 230000000 cycles: 834203082 heartbeat IPC: 0.18401 cumulative IPC: 0.219699 (Simulation time: 1 hr 51 min 14 sec) 
Heartbeat CPU 1 instructions: 230000000 cycles: 834638301 heartbeat IPC: 0.184521 cumulative IPC: 0.219568 (Simulation time: 1 hr 51 min 16 sec) 
Heartbeat CPU 3 instructions: 230000000 cycles: 834870374 heartbeat IPC: 0.184265 cumulative IPC: 0.219532 (Simulation time: 1 hr 51 min 17 sec) 
Heartbeat CPU 0 instructions: 240000001 cycles: 891311549 heartbeat IPC: 0.171488 cumulative IPC: 0.216779 (Simulation time: 1 hr 56 min 30 sec) 
Heartbeat CPU 2 instructions: 240000001 cycles: 892504447 heartbeat IPC: 0.171523 cumulative IPC: 0.216498 (Simulation time: 1 hr 56 min 36 sec) 
Heartbeat CPU 1 instructions: 240000001 cycles: 893041391 heartbeat IPC: 0.171224 cumulative IPC: 0.216353 (Simulation time: 1 hr 56 min 39 sec) 
Heartbeat CPU 3 instructions: 240000001 cycles: 893184910 heartbeat IPC: 0.171484 cumulative IPC: 0.216341 (Simulation time: 1 hr 56 min 40 sec) 
*** Reached end of trace for Core: 0 Repeating trace: ./traces/ligra/ligra_Components.com-lj.ungraph.gcc_6.3.0_O3.drop_22750M.length_250M.champsimtrace.xz
Heartbeat CPU 0 instructions: 250000000 cycles: 951344921 heartbeat IPC: 0.166574 cumulative IPC: 0.21356 (Simulation time: 2 hr 1 min 32 sec) 
Finished CPU 0 instructions: 200000001 cycles: 936520591 cumulative IPC: 0.213556 (Simulation time: 2 hr 1 min 33 sec) 
*** Reached end of trace for Core: 2 Repeating trace: ./traces/ligra/ligra_Components.com-lj.ungraph.gcc_6.3.0_O3.drop_22750M.length_250M.champsimtrace.xz
Heartbeat CPU 2 instructions: 250000000 cycles: 952515059 heartbeat IPC: 0.166637 cumulative IPC: 0.213307 (Simulation time: 2 hr 1 min 40 sec) 
Finished CPU 2 instructions: 200000001 cycles: 937627474 cumulative IPC: 0.213304 (Simulation time: 2 hr 1 min 40 sec) 
*** Reached end of trace for Core: 1 Repeating trace: ./traces/ligra/ligra_Components.com-lj.ungraph.gcc_6.3.0_O3.drop_22750M.length_250M.champsimtrace.xz
Heartbeat CPU 1 instructions: 250000003 cycles: 953065446 heartbeat IPC: 0.1666 cumulative IPC: 0.21317 (Simulation time: 2 hr 1 min 43 sec) 
Finished CPU 1 instructions: 200000000 cycles: 938241507 cumulative IPC: 0.213165 (Simulation time: 2 hr 1 min 44 sec) 
*** Reached end of trace for Core: 3 Repeating trace: ./traces/ligra/ligra_Components.com-lj.ungraph.gcc_6.3.0_O3.drop_22750M.length_250M.champsimtrace.xz
Heartbeat CPU 3 instructions: 250000003 cycles: 953255113 heartbeat IPC: 0.166472 cumulative IPC: 0.213149 (Simulation time: 2 hr 1 min 44 sec) 
Finished CPU 3 instructions: 200000003 cycles: 938311586 cumulative IPC: 0.213149 (Simulation time: 2 hr 1 min 44 sec) 

ChampSim completed all CPUs

Total Simulation Statistics (not including warmup)

CPU 0 cumulative IPC: 0.21362 instructions: 200442388 cycles: 938311586
ITLB TOTAL     ACCESS:   44672228  HIT:   44672228  MISS:          0  HIT %:        100  MISS %:          0   MPKI: 0
ITLB LOAD      ACCESS:          0  HIT:          0  MISS:          0  HIT %:       -nan  MISS %:       -nan   MPKI: 0
ITLB RFO       ACCESS:          0  HIT:          0  MISS:          0  HIT %:       -nan  MISS %:       -nan   MPKI: 0
ITLB PREFETCH  ACCESS:          0  HIT:          0  MISS:          0  HIT %:       -nan  MISS %:       -nan   MPKI: 0
ITLB WRITEBACK ACCESS:          0  HIT:          0  MISS:          0  HIT %:       -nan  MISS %:       -nan   MPKI: 0
DTLB TOTAL     ACCESS:   56594486  HIT:   44526049  MISS:   12068437  HIT %:    78.6756  MISS %:    21.3244   MPKI: 60.209
DTLB LOAD      ACCESS:          0  HIT:          0  MISS:          0  HIT %:       -nan  MISS %:       -nan   MPKI: 0
DTLB RFO       ACCESS:          0  HIT:          0  MISS:          0  HIT %:       -nan  MISS %:       -nan   MPKI: 0
DTLB PREFETCH  ACCESS:          0  HIT:          0  MISS:          0  HIT %:       -nan  MISS %:       -nan   MPKI: 0
DTLB WRITEBACK ACCESS:          0  HIT:          0  MISS:          0  HIT %:       -nan  MISS %:       -nan   MPKI: 0
STLB TOTAL     ACCESS:   26057297  HIT:   24475331  MISS:    1581966  HIT %:    93.9289  MISS %:    6.07111   MPKI: 7.89237
STLB LOAD      ACCESS:          0  HIT:          0  MISS:          0  HIT %:       -nan  MISS %:       -nan   MPKI: 0
STLB RFO       ACCESS:          0  HIT:          0  MISS:          0  HIT %:       -nan  MISS %:       -nan   MPKI: 0
STLB PREFETCH  ACCESS:          0  HIT:          0  MISS:          0  HIT %:       -nan  MISS %:       -nan   MPKI: 0
STLB WRITEBACK ACCESS:          0  HIT:          0  MISS:          0  HIT %:       -nan  MISS %:       -nan   MPKI: 0
L1D TOTAL     ACCESS:   86074214  HIT:   72496710  MISS:   13577504  HIT %:    84.2258  MISS %:    15.7742   MPKI: 67.7377
L1D LOAD      ACCESS:   56715179  HIT:   44847664  MISS:   11867515  HIT %:    79.0752  MISS %:    20.9248   MPKI: 59.2066
L1D RFO       ACCESS:    1926576  HIT:    1896007  MISS:      30569  HIT %:    98.4133  MISS %:     1.5867   MPKI: 0.152508
L1D PREFETCH  ACCESS:   27432459  HIT:   25753039  MISS:    1679420  HIT %:     93.878  MISS %:    6.12202   MPKI: 8.37857
L1D WRITEBACK ACCESS:          0  HIT:          0  MISS:          0  HIT %:       -nan  MISS %:       -nan   MPKI: 0
L1I TOTAL     ACCESS:   44672228  HIT:   44672228  MISS:          0  HIT %:        100  MISS %:          0   MPKI: 0
L1I LOAD      ACCESS:   44672228  HIT:   44672228  MISS:          0  HIT %:        100  MISS %:          0   MPKI: 0
L1I RFO       ACCESS:          0  HIT:          0  MISS:          0  HIT %:       -nan  MISS %:       -nan   MPKI: 0
L1I PREFETCH  ACCESS:          0  HIT:          0  MISS:          0  HIT %:       -nan  MISS %:       -nan   MPKI: 0
L1I WRITEBACK ACCESS:          0  HIT:          0  MISS:          0  HIT %:       -nan  MISS %:       -nan   MPKI: 0
L2C TOTAL     ACCESS:   19502320  HIT:    7694103  MISS:   11808217  HIT %:    39.4522  MISS %:    60.5478   MPKI: 58.9108
L2C LOAD      ACCESS:   11832854  HIT:    1884450  MISS:    9948404  HIT %:    15.9256  MISS %:    84.0744   MPKI: 49.6322
L2C RFO       ACCESS:      30569  HIT:         29  MISS:      30540  HIT %:  0.0948673  MISS %:    99.9051   MPKI: 0.152363
L2C PREFETCH  ACCESS:    5416861  HIT:    3692744  MISS:    1724117  HIT %:    68.1713  MISS %:    31.8287   MPKI: 8.60156
L2C WRITEBACK ACCESS:      30569  HIT:      28394  MISS:       2175  HIT %:    92.8849  MISS %:    7.11505   MPKI: 0.010851
PSCL5 TOTAL     ACCESS:    2191448  HIT:    2191448  MISS:          0  HIT %:        100  MISS %:          0   MPKI: 0
PSCL5 LOAD      ACCESS:          0  HIT:          0  MISS:          0  HIT %:       -nan  MISS %:       -nan   MPKI: 0
PSCL5 RFO       ACCESS:          0  HIT:          0  MISS:          0  HIT %:       -nan  MISS %:       -nan   MPKI: 0
PSCL5 PREFETCH  ACCESS:          0  HIT:          0  MISS:          0  HIT %:       -nan  MISS %:       -nan   MPKI: 0
PSCL5 WRITEBACK ACCESS:          0  HIT:          0  MISS:          0  HIT %:       -nan  MISS %:       -nan   MPKI: 0
PSCL4 TOTAL     ACCESS:    2191448  HIT:    2191448  MISS:          0  HIT %:        100  MISS %:          0   MPKI: 0
PSCL4 LOAD      ACCESS:          0  HIT:          0  MISS:          0  HIT %:       -nan  MISS %:       -nan   MPKI: 0
PSCL4 RFO       ACCESS:          0  HIT:          0  MISS:          0  HIT %:       -nan  MISS %:       -nan   MPKI: 0
PSCL4 PREFETCH  ACCESS:          0  HIT:          0  MISS:          0  HIT %:       -nan  MISS %:       -nan   MPKI: 0
PSCL4 WRITEBACK ACCESS:          0  HIT:          0  MISS:          0  HIT %:       -nan  MISS %:       -nan   MPKI: 0
PSCL3 TOTAL     ACCESS:    2191448  HIT:    2191448  MISS:          0  HIT %:        100  MISS %:          0   MPKI: 0
PSCL3 LOAD      ACCESS:          0  HIT:          0  MISS:          0  HIT %:       -nan  MISS %:       -nan   MPKI: 0
PSCL3 RFO       ACCESS:          0  HIT:          0  MISS:          0  HIT %:       -nan  MISS %:       -nan   MPKI: 0
PSCL3 PREFETCH  ACCESS:          0  HIT:          0  MISS:          0  HIT %:       -nan  MISS %:       -nan   MPKI: 0
PSCL3 WRITEBACK ACCESS:          0  HIT:          0  MISS:          0  HIT %:       -nan  MISS %:       -nan   MPKI: 0
PSCL2 TOTAL     ACCESS:    2190426  HIT:    2190354  MISS:         72  HIT %:    99.9967  MISS %: 0.00328703   MPKI: 0.000359205
PSCL2 LOAD      ACCESS:          0  HIT:          0  MISS:          0  HIT %:       -nan  MISS %:       -nan   MPKI: 0
PSCL2 RFO       ACCESS:          0  HIT:          0  MISS:          0  HIT %:       -nan  MISS %:       -nan   MPKI: 0
PSCL2 PREFETCH  ACCESS:          0  HIT:          0  MISS:          0  HIT %:       -nan  MISS %:       -nan   MPKI: 0
PSCL2 WRITEBACK ACCESS:          0  HIT:          0  MISS:          0  HIT %:       -nan  MISS %:       -nan   MPKI: 0
LLC TOTAL     ACCESS:   11836573  HIT:    3669314  MISS:    8167259  HIT %:    30.9998  MISS %:    69.0002   MPKI: 40.7462
LLC LOAD      ACCESS:    9947209  HIT:    3553476  MISS:    6393733  HIT %:    35.7233  MISS %:    64.2767   MPKI: 31.8981
LLC RFO       ACCESS:      30540  HIT:          0  MISS:      30540  HIT %:          0  MISS %:        100   MPKI: 0.152363
LLC PREFETCH  ACCESS:    1725312  HIT:       2487  MISS:    1722825  HIT %:   0.144148  MISS %:    99.8559   MPKI: 8.59511
LLC WRITEBACK ACCESS:      30531  HIT:      28413  MISS:       2118  HIT %:    93.0628  MISS %:    6.93721   MPKI: 0.0105666

RAW hits: 0
Loads Generated: 78305935
Loads sent to L1D: 78305935
Stores Generated: 1954486
Stores sent to L1D: 1954486

CPU 1 cumulative IPC: 0.213166 instructions: 200015775 cycles: 938311586
ITLB TOTAL     ACCESS:   44573525  HIT:   44573525  MISS:          0  HIT %:        100  MISS %:          0   MPKI: 0
ITLB LOAD      ACCESS:          0  HIT:          0  MISS:          0  HIT %:       -nan  MISS %:       -nan   MPKI: 0
ITLB RFO       ACCESS:          0  HIT:          0  MISS:          0  HIT %:       -nan  MISS %:       -nan   MPKI: 0
ITLB PREFETCH  ACCESS:          0  HIT:          0  MISS:          0  HIT %:       -nan  MISS %:       -nan   MPKI: 0
ITLB WRITEBACK ACCESS:          0  HIT:          0  MISS:          0  HIT %:       -nan  MISS %:       -nan   MPKI: 0
DTLB TOTAL     ACCESS:   56477799  HIT:   44440330  MISS:   12037469  HIT %:    78.6864  MISS %:    21.3136   MPKI: 60.1826
DTLB LOAD      ACCESS:          0  HIT:          0  MISS:          0  HIT %:       -nan  MISS %:       -nan   MPKI: 0
DTLB RFO       ACCESS:          0  HIT:          0  MISS:          0  HIT %:       -nan  MISS %:       -nan   MPKI: 0
DTLB PREFETCH  ACCESS:          0  HIT:          0  MISS:          0  HIT %:       -nan  MISS %:       -nan   MPKI: 0
DTLB WRITEBACK ACCESS:          0  HIT:          0  MISS:          0  HIT %:       -nan  MISS %:       -nan   MPKI: 0
STLB TOTAL     ACCESS:   25991107  HIT:   24409356  MISS:    1581751  HIT %:    93.9143  MISS %:    6.08574   MPKI: 7.90813
STLB LOAD      ACCESS:          0  HIT:          0  MISS:          0  HIT %:       -nan  MISS %:       -nan   MPKI: 0
STLB RFO       ACCESS:          0  HIT:          0  MISS:          0  HIT %:       -nan  MISS %:       -nan   MPKI: 0
STLB PREFETCH  ACCESS:          0  HIT:          0  MISS:          0  HIT %:       -nan  MISS %:       -nan   MPKI: 0
STLB WRITEBACK ACCESS:          0  HIT:          0  MISS:          0  HIT %:       -nan  MISS %:       -nan   MPKI: 0
L1D TOTAL     ACCESS:   85934887  HIT:   72392337  MISS:   13542550  HIT %:    84.2409  MISS %:    15.7591   MPKI: 67.7074
L1D LOAD      ACCESS:   56597248  HIT:   44761842  MISS:   11835406  HIT %:    79.0884  MISS %:    20.9116   MPKI: 59.1724
L1D RFO       ACCESS:    1924026  HIT:    1893498  MISS:      30528  HIT %:    98.4133  MISS %:    1.58667   MPKI: 0.152628
L1D PREFETCH  ACCESS:   27413613  HIT:   25736997  MISS:    1676616  HIT %:     93.884  MISS %:      6.116   MPKI: 8.38242
L1D WRITEBACK ACCESS:          0  HIT:          0  MISS:          0  HIT %:       -nan  MISS %:       -nan   MPKI: 0
L1I TOTAL     ACCESS:   44573525  HIT:   44573525  MISS:          0  HIT %:        100  MISS %:          0   MPKI: 0
L1I LOAD      ACCESS:   44573525  HIT:   44573525  MISS:          0  HIT %:        100  MISS %:          0   MPKI: 0
L1I RFO       ACCESS:          0  HIT:          0  MISS:          0  HIT %:       -nan  MISS %:       -nan   MPKI: 0
L1I PREFETCH  ACCESS:          0  HIT:          0  MISS:          0  HIT %:       -nan  MISS %:       -nan   MPKI: 0
L1I WRITEBACK ACCESS:          0  HIT:          0  MISS:          0  HIT %:       -nan  MISS %:       -nan   MPKI: 0
L2C TOTAL     ACCESS:   19355457  HIT:    7571190  MISS:   11784267  HIT %:    39.1166  MISS %:    60.8834   MPKI: 58.9167
L2C LOAD      ACCESS:   11801084  HIT:    1872746  MISS:    9928338  HIT %:    15.8693  MISS %:    84.1307   MPKI: 49.6378
L2C RFO       ACCESS:      30528  HIT:         29  MISS:      30499  HIT %:  0.0949948  MISS %:     99.905   MPKI: 0.152483
L2C PREFETCH  ACCESS:    5303611  HIT:    3582363  MISS:    1721248  HIT %:    67.5457  MISS %:    32.4543   MPKI: 8.60556
L2C WRITEBACK ACCESS:      30529  HIT:      28369  MISS:       2160  HIT %:    92.9248  MISS %:    7.07524   MPKI: 0.0107991
PSCL5 TOTAL     ACCESS:    2189686  HIT:    2189686  MISS:          0  HIT %:        100  MISS %:          0   MPKI: 0
PSCL5 LOAD      ACCESS:          0  HIT:          0  MISS:          0  HIT %:       -nan  MISS %:       -nan   MPKI: 0
PSCL5 RFO       ACCESS:          0  HIT:          0  MISS:          0  HIT %:       -nan  MISS %:       -nan   MPKI: 0
PSCL5 PREFETCH  ACCESS:          0  HIT:          0  MISS:          0  HIT %:       -nan  MISS %:       -nan   MPKI: 0
PSCL5 WRITEBACK ACCESS:          0  HIT:          0  MISS:          0  HIT %:       -nan  MISS %:       -nan   MPKI: 0
PSCL4 TOTAL     ACCESS:    2189686  HIT:    2189686  MISS:          0  HIT %:        100  MISS %:          0   MPKI: 0
PSCL4 LOAD      ACCESS:          0  HIT:          0  MISS:          0  HIT %:       -nan  MISS %:       -nan   MPKI: 0
PSCL4 RFO       ACCESS:          0  HIT:          0  MISS:          0  HIT %:       -nan  MISS %:       -nan   MPKI: 0
PSCL4 PREFETCH  ACCESS:          0  HIT:          0  MISS:          0  HIT %:       -nan  MISS %:       -nan   MPKI: 0
PSCL4 WRITEBACK ACCESS:          0  HIT:          0  MISS:          0  HIT %:       -nan  MISS %:       -nan   MPKI: 0
PSCL3 TOTAL     ACCESS:    2189686  HIT:    2189686  MISS:          0  HIT %:        100  MISS %:          0   MPKI: 0
PSCL3 LOAD      ACCESS:          0  HIT:          0  MISS:          0  HIT %:       -nan  MISS %:       -nan   MPKI: 0
PSCL3 RFO       ACCESS:          0  HIT:          0  MISS:          0  HIT %:       -nan  MISS %:       -nan   MPKI: 0
PSCL3 PREFETCH  ACCESS:          0  HIT:          0  MISS:          0  HIT %:       -nan  MISS %:       -nan   MPKI: 0
PSCL3 WRITEBACK ACCESS:          0  HIT:          0  MISS:          0  HIT %:       -nan  MISS %:       -nan   MPKI: 0
PSCL2 TOTAL     ACCESS:    2188558  HIT:    2188486  MISS:         72  HIT %:    99.9967  MISS %: 0.00328984   MPKI: 0.000359972
PSCL2 LOAD      ACCESS:          0  HIT:          0  MISS:          0  HIT %:       -nan  MISS %:       -nan   MPKI: 0
PSCL2 RFO       ACCESS:          0  HIT:          0  MISS:          0  HIT %:       -nan  MISS %:       -nan   MPKI: 0
PSCL2 PREFETCH  ACCESS:          0  HIT:          0  MISS:          0  HIT %:       -nan  MISS %:       -nan   MPKI: 0
PSCL2 WRITEBACK ACCESS:          0  HIT:          0  MISS:          0  HIT %:       -nan  MISS %:       -nan   MPKI: 0
LLC TOTAL     ACCESS:   11812592  HIT:    3647978  MISS:    8164614  HIT %:    30.8821  MISS %:    69.1179   MPKI: 40.8199
LLC LOAD      ACCESS:    9927043  HIT:    3532829  MISS:    6394214  HIT %:    35.5879  MISS %:    64.4121   MPKI: 31.9685
LLC RFO       ACCESS:      30499  HIT:          0  MISS:      30499  HIT %:          0  MISS %:        100   MPKI: 0.152483
LLC PREFETCH  ACCESS:    1722543  HIT:       2482  MISS:    1720061  HIT %:   0.144089  MISS %:    99.8559   MPKI: 8.59963
LLC WRITEBACK ACCESS:      30485  HIT:      28425  MISS:       2060  HIT %:    93.2426  MISS %:    6.75742   MPKI: 0.0102992

RAW hits: 0
Loads Generated: 78135066
Loads sent to L1D: 78135061
Stores Generated: 1951901
Stores sent to L1D: 1951901

CPU 2 cumulative IPC: 0.213322 instructions: 200162672 cycles: 938311586
ITLB TOTAL     ACCESS:   44608256  HIT:   44608256  MISS:          0  HIT %:        100  MISS %:          0   MPKI: 0
ITLB LOAD      ACCESS:          0  HIT:          0  MISS:          0  HIT %:       -nan  MISS %:       -nan   MPKI: 0
ITLB RFO       ACCESS:          0  HIT:          0  MISS:          0  HIT %:       -nan  MISS %:       -nan   MPKI: 0
ITLB PREFETCH  ACCESS:          0  HIT:          0  MISS:          0  HIT %:       -nan  MISS %:       -nan   MPKI: 0
ITLB WRITEBACK ACCESS:          0  HIT:          0  MISS:          0  HIT %:       -nan  MISS %:       -nan   MPKI: 0
DTLB TOTAL     ACCESS:   56517486  HIT:   44469381  MISS:   12048105  HIT %:    78.6825  MISS %:    21.3175   MPKI: 60.1916
DTLB LOAD      ACCESS:          0  HIT:          0  MISS:          0  HIT %:       -nan  MISS %:       -nan   MPKI: 0
DTLB RFO       ACCESS:          0  HIT:          0  MISS:          0  HIT %:       -nan  MISS %:       -nan   MPKI: 0
DTLB PREFETCH  ACCESS:          0  HIT:          0  MISS:          0  HIT %:       -nan  MISS %:       -nan   MPKI: 0
DTLB WRITEBACK ACCESS:          0  HIT:          0  MISS:          0  HIT %:       -nan  MISS %:       -nan   MPKI: 0
STLB TOTAL     ACCESS:   26014576  HIT:   24432680  MISS:    1581896  HIT %:    93.9192  MISS %:    6.08081   MPKI: 7.90305
STLB LOAD      ACCESS:          0  HIT:          0  MISS:          0  HIT %:       -nan  MISS %:       -nan   MPKI: 0
STLB RFO       ACCESS:          0  HIT:          0  MISS:          0  HIT %:       -nan  MISS %:       -nan   MPKI: 0
STLB PREFETCH  ACCESS:          0  HIT:          0  MISS:          0  HIT %:       -nan  MISS %:       -nan   MPKI: 0
STLB WRITEBACK ACCESS:          0  HIT:          0  MISS:          0  HIT %:       -nan  MISS %:       -nan   MPKI: 0
L1D TOTAL     ACCESS:   86058185  HIT:   72504333  MISS:   13553852  HIT %:    84.2504  MISS %:    15.7496   MPKI: 67.7142
L1D LOAD      ACCESS:   56638164  HIT:   44793110  MISS:   11845054  HIT %:    79.0864  MISS %:    20.9136   MPKI: 59.1771
L1D RFO       ACCESS:    1924967  HIT:    1894427  MISS:      30540  HIT %:    98.4135  MISS %:    1.58652   MPKI: 0.152576
L1D PREFETCH  ACCESS:   27495054  HIT:   25816796  MISS:    1678258  HIT %:    93.8961  MISS %:    6.10385   MPKI: 8.38447
L1D WRITEBACK ACCESS:          0  HIT:          0  MISS:          0  HIT %:       -nan  MISS %:       -nan   MPKI: 0
L1I TOTAL     ACCESS:   44608256  HIT:   44608256  MISS:          0  HIT %:        100  MISS %:          0   MPKI: 0
L1I LOAD      ACCESS:   44608256  HIT:   44608256  MISS:          0  HIT %:        100  MISS %:          0   MPKI: 0
L1I RFO       ACCESS:          0  HIT:          0  MISS:          0  HIT %:       -nan  MISS %:       -nan   MPKI: 0
L1I PREFETCH  ACCESS:          0  HIT:          0  MISS:          0  HIT %:       -nan  MISS %:       -nan   MPKI: 0
L1I WRITEBACK ACCESS:          0  HIT:          0  MISS:          0  HIT %:       -nan  MISS %:       -nan   MPKI: 0
L2C TOTAL     ACCESS:   19397706  HIT:    7605959  MISS:   11791747  HIT %:    39.2106  MISS %:    60.7894   MPKI: 58.9108
L2C LOAD      ACCESS:   11810696  HIT:    1873704  MISS:    9936992  HIT %:    15.8645  MISS %:    84.1355   MPKI: 49.6446
L2C RFO       ACCESS:      30540  HIT:         28  MISS:      30512  HIT %:   0.091683  MISS %:    99.9083   MPKI: 0.152436
L2C PREFETCH  ACCESS:    5334857  HIT:    3612878  MISS:    1721979  HIT %:    67.7221  MISS %:    32.2779   MPKI: 8.6029
L2C WRITEBACK ACCESS:      30540  HIT:      28373  MISS:       2167  HIT %:    92.9044  MISS %:    7.09561   MPKI: 0.0108262
PSCL5 TOTAL     ACCESS:    2191054  HIT:    2191054  MISS:          0  HIT %:        100  MISS %:          0   MPKI: 0
PSCL5 LOAD      ACCESS:          0  HIT:          0  MISS:          0  HIT %:       -nan  MISS %:       -nan   MPKI: 0
PSCL5 RFO       ACCESS:          0  HIT:          0  MISS:          0  HIT %:       -nan  MISS %:       -nan   MPKI: 0
PSCL5 PREFETCH  ACCESS:          0  HIT:          0  MISS:          0  HIT %:       -nan  MISS %:       -nan   MPKI: 0
PSCL5 WRITEBACK ACCESS:          0  HIT:          0  MISS:          0  HIT %:       -nan  MISS %:       -nan   MPKI: 0
PSCL4 TOTAL     ACCESS:    2191054  HIT:    2191054  MISS:          0  HIT %:        100  MISS %:          0   MPKI: 0
PSCL4 LOAD      ACCESS:          0  HIT:          0  MISS:          0  HIT %:       -nan  MISS %:       -nan   MPKI: 0
PSCL4 RFO       ACCESS:          0  HIT:          0  MISS:          0  HIT %:       -nan  MISS %:       -nan   MPKI: 0
PSCL4 PREFETCH  ACCESS:          0  HIT:          0  MISS:          0  HIT %:       -nan  MISS %:       -nan   MPKI: 0
PSCL4 WRITEBACK ACCESS:          0  HIT:          0  MISS:          0  HIT %:       -nan  MISS %:       -nan   MPKI: 0
PSCL3 TOTAL     ACCESS:    2191054  HIT:    2191054  MISS:          0  HIT %:        100  MISS %:          0   MPKI: 0
PSCL3 LOAD      ACCESS:          0  HIT:          0  MISS:          0  HIT %:       -nan  MISS %:       -nan   MPKI: 0
PSCL3 RFO       ACCESS:          0  HIT:          0  MISS:          0  HIT %:       -nan  MISS %:       -nan   MPKI: 0
PSCL3 PREFETCH  ACCESS:          0  HIT:          0  MISS:          0  HIT %:       -nan  MISS %:       -nan   MPKI: 0
PSCL3 WRITEBACK ACCESS:          0  HIT:          0  MISS:          0  HIT %:       -nan  MISS %:       -nan   MPKI: 0
PSCL2 TOTAL     ACCESS:    2189998  HIT:    2189926  MISS:         72  HIT %:    99.9967  MISS %: 0.00328767   MPKI: 0.000359707
PSCL2 LOAD      ACCESS:          0  HIT:          0  MISS:          0  HIT %:       -nan  MISS %:       -nan   MPKI: 0
PSCL2 RFO       ACCESS:          0  HIT:          0  MISS:          0  HIT %:       -nan  MISS %:       -nan   MPKI: 0
PSCL2 PREFETCH  ACCESS:          0  HIT:          0  MISS:          0  HIT %:       -nan  MISS %:       -nan   MPKI: 0
PSCL2 WRITEBACK ACCESS:          0  HIT:          0  MISS:          0  HIT %:       -nan  MISS %:       -nan   MPKI: 0
LLC TOTAL     ACCESS:   11820081  HIT:    3665940  MISS:    8154141  HIT %:    31.0145  MISS %:    68.9855   MPKI: 40.7376
LLC LOAD      ACCESS:    9935734  HIT:    3552041  MISS:    6383693  HIT %:    35.7502  MISS %:    64.2498   MPKI: 31.8925
LLC RFO       ACCESS:      30512  HIT:          0  MISS:      30512  HIT %:          0  MISS %:        100   MPKI: 0.152436
LLC PREFETCH  ACCESS:    1723237  HIT:       2453  MISS:    1720784  HIT %:   0.142348  MISS %:    99.8577   MPKI: 8.59693
LLC WRITEBACK ACCESS:      30501  HIT:      28451  MISS:       2050  HIT %:    93.2789  MISS %:    6.72109   MPKI: 0.0102417

RAW hits: 0
Loads Generated: 78194180
Loads sent to L1D: 78194170
Stores Generated: 1952696
Stores sent to L1D: 1952697

CPU 3 cumulative IPC: 0.213149 instructions: 200000003 cycles: 938311586
ITLB TOTAL     ACCESS:   44569736  HIT:   44569736  MISS:          0  HIT %:        100  MISS %:          0   MPKI: 0
ITLB LOAD      ACCESS:          0  HIT:          0  MISS:          0  HIT %:       -nan  MISS %:       -nan   MPKI: 0
ITLB RFO       ACCESS:          0  HIT:          0  MISS:          0  HIT %:       -nan  MISS %:       -nan   MPKI: 0
ITLB PREFETCH  ACCESS:          0  HIT:          0  MISS:          0  HIT %:       -nan  MISS %:       -nan   MPKI: 0
ITLB WRITEBACK ACCESS:          0  HIT:          0  MISS:          0  HIT %:       -nan  MISS %:       -nan   MPKI: 0
DTLB TOTAL     ACCESS:   56476755  HIT:   44440421  MISS:   12036334  HIT %:     78.688  MISS %:     21.312   MPKI: 60.1817
DTLB LOAD      ACCESS:          0  HIT:          0  MISS:          0  HIT %:       -nan  MISS %:       -nan   MPKI: 0
DTLB RFO       ACCESS:          0  HIT:          0  MISS:          0  HIT %:       -nan  MISS %:       -nan   MPKI: 0
DTLB PREFETCH  ACCESS:          0  HIT:          0  MISS:          0  HIT %:       -nan  MISS %:       -nan   MPKI: 0
DTLB WRITEBACK ACCESS:          0  HIT:          0  MISS:          0  HIT %:       -nan  MISS %:       -nan   MPKI: 0
STLB TOTAL     ACCESS:   26008020  HIT:   24426677  MISS:    1581343  HIT %:    93.9198  MISS %:    6.08021   MPKI: 7.90671
STLB LOAD      ACCESS:          0  HIT:          0  MISS:          0  HIT %:       -nan  MISS %:       -nan   MPKI: 0
STLB RFO       ACCESS:          0  HIT:          0  MISS:          0  HIT %:       -nan  MISS %:       -nan   MPKI: 0
STLB PREFETCH  ACCESS:          0  HIT:          0  MISS:          0  HIT %:       -nan  MISS %:       -nan   MPKI: 0
STLB WRITEBACK ACCESS:          0  HIT:          0  MISS:          0  HIT %:       -nan  MISS %:       -nan   MPKI: 0
L1D TOTAL     ACCESS:   86040316  HIT:   72498881  MISS:   13541435  HIT %:    84.2615  MISS %:    15.7385   MPKI: 67.7072
L1D LOAD      ACCESS:   56596798  HIT:   44762646  MISS:   11834152  HIT %:    79.0904  MISS %:    20.9096   MPKI: 59.1708
L1D RFO       ACCESS:    1923746  HIT:    1893219  MISS:      30527  HIT %:    98.4131  MISS %:    1.58685   MPKI: 0.152635
L1D PREFETCH  ACCESS:   27519772  HIT:   25843016  MISS:    1676756  HIT %:    93.9071  MISS %:    6.09291   MPKI: 8.38378
L1D WRITEBACK ACCESS:          0  HIT:          0  MISS:          0  HIT %:       -nan  MISS %:       -nan   MPKI: 0
L1I TOTAL     ACCESS:   44569736  HIT:   44569736  MISS:          0  HIT %:        100  MISS %:          0   MPKI: 0
L1I LOAD      ACCESS:   44569736  HIT:   44569736  MISS:          0  HIT %:        100  MISS %:          0   MPKI: 0
L1I RFO       ACCESS:          0  HIT:          0  MISS:          0  HIT %:       -nan  MISS %:       -nan   MPKI: 0
L1I PREFETCH  ACCESS:          0  HIT:          0  MISS:          0  HIT %:       -nan  MISS %:       -nan   MPKI: 0
L1I WRITEBACK ACCESS:          0  HIT:          0  MISS:          0  HIT %:       -nan  MISS %:       -nan   MPKI: 0
L2C TOTAL     ACCESS:   19412415  HIT:    7618908  MISS:   11793507  HIT %:    39.2476  MISS %:    60.7524   MPKI: 58.9675
L2C LOAD      ACCESS:   11799474  HIT:    1870274  MISS:    9929200  HIT %:    15.8505  MISS %:    84.1495   MPKI: 49.646
L2C RFO       ACCESS:      30527  HIT:         27  MISS:      30500  HIT %:  0.0884463  MISS %:    99.9116   MPKI: 0.1525
L2C PREFETCH  ACCESS:    5363447  HIT:    3641935  MISS:    1721512  HIT %:    67.9029  MISS %:    32.0971   MPKI: 8.60756
L2C WRITEBACK ACCESS:      30526  HIT:      28247  MISS:       2279  HIT %:    92.5342  MISS %:    7.46577   MPKI: 0.011395
PSCL5 TOTAL     ACCESS:    2188425  HIT:    2188425  MISS:          0  HIT %:        100  MISS %:          0   MPKI: 0
PSCL5 LOAD      ACCESS:          0  HIT:          0  MISS:          0  HIT %:       -nan  MISS %:       -nan   MPKI: 0
PSCL5 RFO       ACCESS:          0  HIT:          0  MISS:          0  HIT %:       -nan  MISS %:       -nan   MPKI: 0
PSCL5 PREFETCH  ACCESS:          0  HIT:          0  MISS:          0  HIT %:       -nan  MISS %:       -nan   MPKI: 0
PSCL5 WRITEBACK ACCESS:          0  HIT:          0  MISS:          0  HIT %:       -nan  MISS %:       -nan   MPKI: 0
PSCL4 TOTAL     ACCESS:    2188425  HIT:    2188425  MISS:          0  HIT %:        100  MISS %:          0   MPKI: 0
PSCL4 LOAD      ACCESS:          0  HIT:          0  MISS:          0  HIT %:       -nan  MISS %:       -nan   MPKI: 0
PSCL4 RFO       ACCESS:          0  HIT:          0  MISS:          0  HIT %:       -nan  MISS %:       -nan   MPKI: 0
PSCL4 PREFETCH  ACCESS:          0  HIT:          0  MISS:          0  HIT %:       -nan  MISS %:       -nan   MPKI: 0
PSCL4 WRITEBACK ACCESS:          0  HIT:          0  MISS:          0  HIT %:       -nan  MISS %:       -nan   MPKI: 0
PSCL3 TOTAL     ACCESS:    2188425  HIT:    2188425  MISS:          0  HIT %:        100  MISS %:          0   MPKI: 0
PSCL3 LOAD      ACCESS:          0  HIT:          0  MISS:          0  HIT %:       -nan  MISS %:       -nan   MPKI: 0
PSCL3 RFO       ACCESS:          0  HIT:          0  MISS:          0  HIT %:       -nan  MISS %:       -nan   MPKI: 0
PSCL3 PREFETCH  ACCESS:          0  HIT:          0  MISS:          0  HIT %:       -nan  MISS %:       -nan   MPKI: 0
PSCL3 WRITEBACK ACCESS:          0  HIT:          0  MISS:          0  HIT %:       -nan  MISS %:       -nan   MPKI: 0
PSCL2 TOTAL     ACCESS:    2187380  HIT:    2187311  MISS:         69  HIT %:    99.9968  MISS %: 0.00315446   MPKI: 0.000345
PSCL2 LOAD      ACCESS:          0  HIT:          0  MISS:          0  HIT %:       -nan  MISS %:       -nan   MPKI: 0
PSCL2 RFO       ACCESS:          0  HIT:          0  MISS:          0  HIT %:       -nan  MISS %:       -nan   MPKI: 0
PSCL2 PREFETCH  ACCESS:          0  HIT:          0  MISS:          0  HIT %:       -nan  MISS %:       -nan   MPKI: 0
PSCL2 WRITEBACK ACCESS:          0  HIT:          0  MISS:          0  HIT %:       -nan  MISS %:       -nan   MPKI: 0
LLC TOTAL     ACCESS:   11821716  HIT:    3669743  MISS:    8151973  HIT %:    31.0424  MISS %:    68.9576   MPKI: 40.7599
LLC LOAD      ACCESS:    9928107  HIT:    3546605  MISS:    6381502  HIT %:    35.7229  MISS %:    64.2771   MPKI: 31.9075
LLC RFO       ACCESS:      30500  HIT:          2  MISS:      30498  HIT %: 0.00655738  MISS %:    99.9934   MPKI: 0.15249
LLC PREFETCH  ACCESS:    1722605  HIT:       2630  MISS:    1719975  HIT %:   0.152676  MISS %:    99.8473   MPKI: 8.59987
LLC WRITEBACK ACCESS:      30488  HIT:      28402  MISS:       2086  HIT %:     93.158  MISS %:    6.84204   MPKI: 0.01043

RAW hits: 0
Loads Generated: 78128495
Loads sent to L1D: 78128495
Stores Generated: 1951880
Stores sent to L1D: 1951881

Region of Interest Statistics

CPU 0 cumulative IPC: 0.213556 instructions: 200000001 cycles: 936520591
ITLB TOTAL     ACCESS:   44568948  HIT:   44568948  MISS:          0  HIT %:        100  MISS %:          0   MPKI: 0
ITLB LOAD TRANSLATION ACCESS:   44568948  HIT:   44568948  MISS:          0  HIT %:        100  MISS %:          0   MPKI: 0
ITLB PREFETCH  REQUESTED:          0  ISSUED:          0  USEFUL:          0  USELESS:          0
ITLB USEFUL LOAD PREFETCHES:          0 PREFETCH ISSUED TO LOWER LEVEL:          0  ACCURACY: -nan
ITLB TIMELY PREFETCHES:          0 LATE PREFETCHES: 0 DROPPED PREFETCHES: 0
ITLB PREFETCHES SAME FILL-ORIGIN LEVEL: 0 DIFFERENT FILL-ORIGIN LEVEL: 0
ITLB AVERAGE MISS LATENCY: -nan cycles
ITLB RQ	ACCESS:   44672227	FORWARD:          0	MERGED:          0	TO_CACHE:   44672227

DTLB TOTAL     ACCESS:   56471839  HIT:   44435395  MISS:   12036444  HIT %:    78.6859  MISS %:    21.3141   MPKI: 60.1822
DTLB LOAD TRANSLATION ACCESS:   56471839  HIT:   44435395  MISS:   12036444  HIT %:    78.6859  MISS %:    21.3141   MPKI: 60.1822
DTLB PREFETCH  REQUESTED:          0  ISSUED:          0  USEFUL:          0  USELESS:          0
DTLB USEFUL LOAD PREFETCHES:          0 PREFETCH ISSUED TO LOWER LEVEL:          0  ACCURACY: -nan
DTLB TIMELY PREFETCHES:          0 LATE PREFETCHES: 0 DROPPED PREFETCHES: 0
DTLB PREFETCHES SAME FILL-ORIGIN LEVEL: 0 DIFFERENT FILL-ORIGIN LEVEL: 0
DTLB AVERAGE MISS LATENCY: 14.0294 cycles
DTLB RQ	ACCESS:   59000266	FORWARD:          0	MERGED:    2241435	TO_CACHE:   56758831

STLB TOTAL     ACCESS:   25995030  HIT:   24413399  MISS:    1581631  HIT %:    93.9156  MISS %:    6.08436   MPKI: 7.90815
STLB LOAD TRANSLATION ACCESS:   12036444  HIT:   10454924  MISS:    1581520  HIT %:    86.8606  MISS %:    13.1394   MPKI: 7.9076
STLB TRANSLATION FROM L1D PREFETCHER ACCESS:   13958586  HIT:   13958475  MISS:        111  HIT %:    99.9992  MISS %: 0.000795209   MPKI: 0.000555
STLB PREFETCH  REQUESTED:          0  ISSUED:          0  USEFUL:        146  USELESS:         15
STLB USEFUL LOAD PREFETCHES:        146 PREFETCH ISSUED TO LOWER LEVEL:          0  ACCURACY: inf
STLB TIMELY PREFETCHES:        146 LATE PREFETCHES: 2285 DROPPED PREFETCHES: 607202
STLB PREFETCHES SAME FILL-ORIGIN LEVEL: 0 DIFFERENT FILL-ORIGIN LEVEL: 0
STLB AVERAGE MISS LATENCY: 34.7831 cycles
STLB RQ	ACCESS:   48209299	FORWARD:          0	MERGED:   21533505	TO_CACHE:   26675794

STLB Hit, L1D data hit: 0
STLB Hit, L2C data hit: 0
STLB Hit, LLC data hit: 0
STLB Hit, LLC data miss: 0
STLB STLB hints to L2: 0
L1D TOTAL     ACCESS:   85903190  HIT:   72361893  MISS:   13541297  HIT %:    84.2366  MISS %:    15.7634   MPKI: 67.7065
L1D LOAD      ACCESS:   56590620  HIT:   44756144  MISS:   11834476  HIT %:    79.0876  MISS %:    20.9124   MPKI: 59.1724
L1D RFO       ACCESS:    1923930  HIT:    1893403  MISS:      30527  HIT %:    98.4133  MISS %:     1.5867   MPKI: 0.152635
L1D PREFETCH  ACCESS:   27388640  HIT:   25712346  MISS:    1676294  HIT %:    93.8796  MISS %:     6.1204   MPKI: 8.38147
L1D PREFETCH  REQUESTED:   82504473  ISSUED:   82470807  USEFUL:    1678314  USELESS:       1111
L1D USEFUL LOAD PREFETCHES:    1678314 PREFETCH ISSUED TO LOWER LEVEL:    6566934  ACCURACY: 25.557
L1D TIMELY PREFETCHES:    1678314 LATE PREFETCHES: 34661 DROPPED PREFETCHES: 1612985
L1D PREFETCHES SAME FILL-ORIGIN LEVEL: 1714090 DIFFERENT FILL-ORIGIN LEVEL: 4852844
L1D AVERAGE MISS LATENCY: 219.18 cycles
L1D RQ	ACCESS:   78305935	FORWARD:          0	MERGED:   21260155	TO_CACHE:   57045780
L1D WQ	ACCESS:    1954486	FORWARD:          0	MERGED:          0	TO_CACHE:    1954486
L1D PQ	ACCESS:   46329945	FORWARD:          0	MERGED:   10189083	TO_CACHE:   36140862

L1D UNIQUE REGIONS ACCESSED: 0
L1D REGIONS CONFLICTS: 0
L1D Cross Page Prefetch Requests: 2677286
L1D Same Page Prefetch Requests: 51740182
L1D ROI Sum of L1D PQ occupancy: 501839570
L1D PREFETCHES PUSHED FROM L2C: 0
L1I TOTAL     ACCESS:   44568948  HIT:   44568948  MISS:          0  HIT %:        100  MISS %:          0   MPKI: 0
L1I LOAD      ACCESS:   44568948  HIT:   44568948  MISS:          0  HIT %:        100  MISS %:          0   MPKI: 0
L1I PREFETCH  REQUESTED:          0  ISSUED:          0  USEFUL:          0  USELESS:          0
L1I USEFUL LOAD PREFETCHES:          0 PREFETCH ISSUED TO LOWER LEVEL:          0  ACCURACY: -nan
L1I TIMELY PREFETCHES:          0 LATE PREFETCHES: 0 DROPPED PREFETCHES: 0
L1I PREFETCHES SAME FILL-ORIGIN LEVEL: 0 DIFFERENT FILL-ORIGIN LEVEL: 0
L1I AVERAGE MISS LATENCY: -nan cycles
L1I RQ	ACCESS:   48212985	FORWARD:          0	MERGED:    3540758	TO_CACHE:   44672227

BTB TOTAL     ACCESS:   47746732  HIT:   47746728  MISS:          4  HIT %:        100  MISS %: 8.37754e-06   MPKI: 2e-05
BTB BRANCH_DIRECT_JUMP	ACCESS:          0  HIT:          0  MISS:          0
BTB BRANCH_INDIRECT	ACCESS:          0  HIT:          0  MISS:          0
BTB BRANCH_CONDITIONAL	ACCESS:   47746732  HIT:   47746728  MISS:          4
BTB BRANCH_DIRECT_CALL	ACCESS:          0  HIT:          0  MISS:          0
BTB BRANCH_INDIRECT_CALL	ACCESS:          0  HIT:          0  MISS:          0
BTB BRANCH_RETURN	ACCESS:          0  HIT:          0  MISS:          0
BTB BRANCH_OTHER ACCESS:          0  HIT:          0  MISS:          0

L2C TOTAL     ACCESS:   19460289  HIT:    7678832  MISS:   11781457  HIT %:     39.459  MISS %:     60.541   MPKI: 58.9073
L2C LOAD      ACCESS:   11799950  HIT:    1874984  MISS:    9924966  HIT %:    15.8898  MISS %:    84.1102   MPKI: 49.6248
L2C DATA LOAD MPKI: 49.6248
L2C INSTRUCTION LOAD MPKI: 0
L2C RFO       ACCESS:      30527  HIT:         29  MISS:      30498  HIT %:  0.0949979  MISS %:     99.905   MPKI: 0.15249
L2C PREFETCH  ACCESS:    5408153  HIT:    3687279  MISS:    1720874  HIT %:      68.18  MISS %:      31.82   MPKI: 8.60437
L2C DATA PREFETCH MPKI: 8.60437
L2C INSTRUCTION PREFETCH MPKI: 0
L2C WRITEBACK ACCESS:      30527  HIT:      28356  MISS:       2171  HIT %:    92.8883  MISS %:    7.11174   MPKI: 0.010855
L2C LOAD TRANSLATION ACCESS:    1581534  HIT:    1482434  MISS:      99100  HIT %:    93.7339  MISS %:    6.26607   MPKI: 0.4955
L2C TRANSLATION FROM L1D PREFETCHER ACCESS:     609598  HIT:     605750  MISS:       3848  HIT %:    99.3688  MISS %:   0.631236   MPKI: 0.01924
L2C PREFETCH  REQUESTED:          0  ISSUED:          0  USEFUL:      22711  USELESS:    1705720
L2C USEFUL LOAD PREFETCHES:      22711 PREFETCH ISSUED TO LOWER LEVEL:    1725313  ACCURACY: 1.31634
L2C TIMELY PREFETCHES:      22711 LATE PREFETCHES: 1195 DROPPED PREFETCHES: 0
L2C PREFETCHES SAME FILL-ORIGIN LEVEL: 595683 DIFFERENT FILL-ORIGIN LEVEL: 0
L2C AVERAGE MISS LATENCY: 252.94 cycles
L2C RQ	ACCESS:   14054891	FORWARD:          0	MERGED:          0	TO_CACHE:   14054891
L2C WQ	ACCESS:      30569	FORWARD:          0	MERGED:          0	TO_CACHE:      30569
L2C PQ	ACCESS:    6566906	FORWARD:          0	MERGED:       2362	TO_CACHE:    6564544

L2C Instructions Evicting Data 0
L2C Translations Evicting Data 102834
L2C Data Evicting Data 11600308
L2C Instructions Evicting Instructions 0
L2C Translations Evicting Instructions 0
L2C Data Evicting Instructions 0
L2C Instructions Evicting Translations 0
L2C Translations Evicting Translations 147
L2C Data Evicting Translations 102753
L2C Dense regions hint from L2: 0
PSCL5 TOTAL     ACCESS:    2191113  HIT:    2191113  MISS:          0  HIT %:        100  MISS %:          0   MPKI: 0
PSCL5 LOAD TRANSLATION ACCESS:    1581515  HIT:    1581515  MISS:          0  HIT %:        100  MISS %:          0   MPKI: 0
PSCL5 TRANSLATION FROM L1D PREFETCHER ACCESS:     609598  HIT:     609598  MISS:          0  HIT %:        100  MISS %:          0   MPKI: 0
PSCL5 PREFETCH  REQUESTED:          0  ISSUED:          0  USEFUL:          0  USELESS:          0
PSCL5 USEFUL LOAD PREFETCHES:          0 PREFETCH ISSUED TO LOWER LEVEL:          0  ACCURACY: -nan
PSCL5 TIMELY PREFETCHES:          0 LATE PREFETCHES: 0 DROPPED PREFETCHES: 0
PSCL5 PREFETCHES SAME FILL-ORIGIN LEVEL: 0 DIFFERENT FILL-ORIGIN LEVEL: 0

PSCL4 TOTAL     ACCESS:    2191113  HIT:    2191113  MISS:          0  HIT %:        100  MISS %:          0   MPKI: 0
PSCL4 LOAD TRANSLATION ACCESS:    1581515  HIT:    1581515  MISS:          0  HIT %:        100  MISS %:          0   MPKI: 0
PSCL4 TRANSLATION FROM L1D PREFETCHER ACCESS:     609598  HIT:     609598  MISS:          0  HIT %:        100  MISS %:          0   MPKI: 0
PSCL4 PREFETCH  REQUESTED:          0  ISSUED:          0  USEFUL:          0  USELESS:          0
PSCL4 USEFUL LOAD PREFETCHES:          0 PREFETCH ISSUED TO LOWER LEVEL:          0  ACCURACY: -nan
PSCL4 TIMELY PREFETCHES:          0 LATE PREFETCHES: 0 DROPPED PREFETCHES: 0
PSCL4 PREFETCHES SAME FILL-ORIGIN LEVEL: 0 DIFFERENT FILL-ORIGIN LEVEL: 0

PSCL3 TOTAL     ACCESS:    2191113  HIT:    2191113  MISS:          0  HIT %:        100  MISS %:          0   MPKI: 0
PSCL3 LOAD TRANSLATION ACCESS:    1581515  HIT:    1581515  MISS:          0  HIT %:        100  MISS %:          0   MPKI: 0
PSCL3 TRANSLATION FROM L1D PREFETCHER ACCESS:     609598  HIT:     609598  MISS:          0  HIT %:        100  MISS %:          0   MPKI: 0
PSCL3 PREFETCH  REQUESTED:          0  ISSUED:          0  USEFUL:          0  USELESS:          0
PSCL3 USEFUL LOAD PREFETCHES:          0 PREFETCH ISSUED TO LOWER LEVEL:          0  ACCURACY: -nan
PSCL3 TIMELY PREFETCHES:          0 LATE PREFETCHES: 0 DROPPED PREFETCHES: 0
PSCL3 PREFETCHES SAME FILL-ORIGIN LEVEL: 0 DIFFERENT FILL-ORIGIN LEVEL: 0

PSCL2 TOTAL     ACCESS:    2190091  HIT:    2190019  MISS:         72  HIT %:    99.9967  MISS %: 0.00328753   MPKI: 0.00036
PSCL2 LOAD TRANSLATION ACCESS:    1581515  HIT:    1581443  MISS:         72  HIT %:    99.9954  MISS %:  0.0045526   MPKI: 0.00036
PSCL2 TRANSLATION FROM L1D PREFETCHER ACCESS:     608576  HIT:     608576  MISS:          0  HIT %:        100  MISS %:          0   MPKI: 0
PSCL2 PREFETCH  REQUESTED:          0  ISSUED:          0  USEFUL:          0  USELESS:          0
PSCL2 USEFUL LOAD PREFETCHES:          0 PREFETCH ISSUED TO LOWER LEVEL:          0  ACCURACY: -nan
PSCL2 TIMELY PREFETCHES:          0 LATE PREFETCHES: 0 DROPPED PREFETCHES: 0
PSCL2 PREFETCHES SAME FILL-ORIGIN LEVEL: 0 DIFFERENT FILL-ORIGIN LEVEL: 0

LLC TOTAL     ACCESS:   11809748  HIT:    3659519  MISS:    8150229  HIT %:    30.9873  MISS %:    69.0127   MPKI: 40.7511
LLC LOAD      ACCESS:    9923771  HIT:    3543782  MISS:    6379989  HIT %:      35.71  MISS %:      64.29   MPKI: 31.8999
LLC RFO       ACCESS:      30498  HIT:          0  MISS:      30498  HIT %:          0  MISS %:        100   MPKI: 0.15249
LLC PREFETCH  ACCESS:    1722069  HIT:       2475  MISS:    1719594  HIT %:   0.143722  MISS %:    99.8563   MPKI: 8.59797
LLC WRITEBACK ACCESS:      30462  HIT:      28349  MISS:       2113  HIT %:    93.0635  MISS %:    6.93651   MPKI: 0.010565
LLC LOAD TRANSLATION ACCESS:      99100  HIT:      84530  MISS:      14570  HIT %:    85.2977  MISS %:    14.7023   MPKI: 0.07285
LLC TRANSLATION FROM L1D PREFETCHER ACCESS:       3848  HIT:        383  MISS:       3465  HIT %:    9.95322  MISS %:    90.0468   MPKI: 0.017325
LLC PREFETCH  REQUESTED:          0  ISSUED:          0  USEFUL:      45066  USELESS:    6850273
LLC USEFUL LOAD PREFETCHES:      45066 PREFETCH ISSUED TO LOWER LEVEL:    6883648  ACCURACY: 0.654682
LLC TIMELY PREFETCHES:      45066 LATE PREFETCHES: 0 DROPPED PREFETCHES: 0
LLC PREFETCHES SAME FILL-ORIGIN LEVEL: 0 DIFFERENT FILL-ORIGIN LEVEL: 0
LLC AVERAGE MISS LATENCY: 1288.37 cycles
LLC RQ	ACCESS:   40275263	FORWARD:          0	MERGED:          0	TO_CACHE:   40275263
LLC WQ	ACCESS:     122005	FORWARD:          0	MERGED:          0	TO_CACHE:     122005
LLC PQ	ACCESS:    6893700	FORWARD:          0	MERGED:          0	TO_CACHE:    6893700

LLC Dense regions hint to LLC: 0

RAW hits: 0
Loads Generated: 78128694
Loads sent to L1D: 78128697
Stores Generated: 1951812
Stores sent to L1D: 1951812
Major fault: 0 Minor fault: 35029
Allocated PAGES: 140116

CPU 1 cumulative IPC: 0.213165 instructions: 200000000 cycles: 938241507
ITLB TOTAL     ACCESS:   44569846  HIT:   44569846  MISS:          0  HIT %:        100  MISS %:          0   MPKI: 0
ITLB LOAD TRANSLATION ACCESS:   44569846  HIT:   44569846  MISS:          0  HIT %:        100  MISS %:          0   MPKI: 0
ITLB PREFETCH  REQUESTED:          0  ISSUED:          0  USEFUL:          0  USELESS:          0
ITLB USEFUL LOAD PREFETCHES:          0 PREFETCH ISSUED TO LOWER LEVEL:          0  ACCURACY: -nan
ITLB TIMELY PREFETCHES:          0 LATE PREFETCHES: 0 DROPPED PREFETCHES: 0
ITLB PREFETCHES SAME FILL-ORIGIN LEVEL: 0 DIFFERENT FILL-ORIGIN LEVEL: 0
ITLB AVERAGE MISS LATENCY: -nan cycles
ITLB RQ	ACCESS:   44573526	FORWARD:          0	MERGED:          0	TO_CACHE:   44573526

DTLB TOTAL     ACCESS:   56473546  HIT:   44436981  MISS:   12036565  HIT %:    78.6864  MISS %:    21.3136   MPKI: 60.1828
DTLB LOAD TRANSLATION ACCESS:   56473546  HIT:   44436981  MISS:   12036565  HIT %:    78.6864  MISS %:    21.3136   MPKI: 60.1828
DTLB PREFETCH  REQUESTED:          0  ISSUED:          0  USEFUL:          0  USELESS:          0
DTLB USEFUL LOAD PREFETCHES:          0 PREFETCH ISSUED TO LOWER LEVEL:          0  ACCURACY: -nan
DTLB TIMELY PREFETCHES:          0 LATE PREFETCHES: 0 DROPPED PREFETCHES: 0
DTLB PREFETCHES SAME FILL-ORIGIN LEVEL: 0 DIFFERENT FILL-ORIGIN LEVEL: 0
DTLB AVERAGE MISS LATENCY: 13.9855 cycles
DTLB RQ	ACCESS:   58878672	FORWARD:          0	MERGED:    2237304	TO_CACHE:   56641368

STLB TOTAL     ACCESS:   25989133  HIT:   24407469  MISS:    1581664  HIT %:    93.9141  MISS %:    6.08587   MPKI: 7.90832
STLB LOAD TRANSLATION ACCESS:   12036565  HIT:   10455011  MISS:    1581554  HIT %:    86.8604  MISS %:    13.1396   MPKI: 7.90777
STLB TRANSLATION FROM L1D PREFETCHER ACCESS:   13952568  HIT:   13952458  MISS:        110  HIT %:    99.9992  MISS %: 0.000788385   MPKI: 0.00055
STLB PREFETCH  REQUESTED:          0  ISSUED:          0  USEFUL:         95  USELESS:         18
STLB USEFUL LOAD PREFETCHES:         95 PREFETCH ISSUED TO LOWER LEVEL:          0  ACCURACY: inf
STLB TIMELY PREFETCHES:         95 LATE PREFETCHES: 2305 DROPPED PREFETCHES: 605634
STLB PREFETCHES SAME FILL-ORIGIN LEVEL: 0 DIFFERENT FILL-ORIGIN LEVEL: 0
STLB AVERAGE MISS LATENCY: 34.6261 cycles
STLB RQ	ACCESS:   48009103	FORWARD:          0	MERGED:   21401042	TO_CACHE:   26608061

STLB Hit, L1D data hit: 0
STLB Hit, L2C data hit: 0
STLB Hit, LLC data hit: 0
STLB Hit, LLC data miss: 0
STLB STLB hints to L2: 0
L1D TOTAL     ACCESS:   85928732  HIT:   72387208  MISS:   13541524  HIT %:     84.241  MISS %:     15.759   MPKI: 67.7076
L1D LOAD      ACCESS:   56592930  HIT:   44758436  MISS:   11834494  HIT %:    79.0884  MISS %:    20.9116   MPKI: 59.1725
L1D RFO       ACCESS:    1923942  HIT:    1893415  MISS:      30527  HIT %:    98.4133  MISS %:    1.58669   MPKI: 0.152635
L1D PREFETCH  ACCESS:   27411860  HIT:   25735357  MISS:    1676503  HIT %:     93.884  MISS %:    6.11598   MPKI: 8.38251
L1D PREFETCH  REQUESTED:   82125443  ISSUED:   82091813  USEFUL:    1675346  USELESS:       1280
L1D USEFUL LOAD PREFETCHES:    1675346 PREFETCH ISSUED TO LOWER LEVEL:    6447649  ACCURACY: 25.9838
L1D TIMELY PREFETCHES:    1675346 LATE PREFETCHES: 34322 DROPPED PREFETCHES: 1616530
L1D PREFETCHES SAME FILL-ORIGIN LEVEL: 1711083 DIFFERENT FILL-ORIGIN LEVEL: 4736566
L1D AVERAGE MISS LATENCY: 219.346 cycles
L1D RQ	ACCESS:   78135061	FORWARD:          0	MERGED:   21208290	TO_CACHE:   56926771
L1D WQ	ACCESS:    1951901	FORWARD:          0	MERGED:          0	TO_CACHE:    1951901
L1D PQ	ACCESS:   46120182	FORWARD:          0	MERGED:   10148551	TO_CACHE:   35971631

L1D UNIQUE REGIONS ACCESSED: 0
L1D REGIONS CONFLICTS: 0
L1D Cross Page Prefetch Requests: 2689948
L1D Same Page Prefetch Requests: 51511040
L1D ROI Sum of L1D PQ occupancy: 499693816
L1D PREFETCHES PUSHED FROM L2C: 0
L1I TOTAL     ACCESS:   44569846  HIT:   44569846  MISS:          0  HIT %:        100  MISS %:          0   MPKI: 0
L1I LOAD      ACCESS:   44569846  HIT:   44569846  MISS:          0  HIT %:        100  MISS %:          0   MPKI: 0
L1I PREFETCH  REQUESTED:          0  ISSUED:          0  USEFUL:          0  USELESS:          0
L1I USEFUL LOAD PREFETCHES:          0 PREFETCH ISSUED TO LOWER LEVEL:          0  ACCURACY: -nan
L1I TIMELY PREFETCHES:          0 LATE PREFETCHES: 0 DROPPED PREFETCHES: 0
L1I PREFETCHES SAME FILL-ORIGIN LEVEL: 0 DIFFERENT FILL-ORIGIN LEVEL: 0
L1I AVERAGE MISS LATENCY: -nan cycles
L1I RQ	ACCESS:   48109224	FORWARD:          0	MERGED:    3535698	TO_CACHE:   44573526

BTB TOTAL     ACCESS:   47746666  HIT:   47746662  MISS:          4  HIT %:        100  MISS %: 8.37755e-06   MPKI: 2e-05
BTB BRANCH_DIRECT_JUMP	ACCESS:          0  HIT:          0  MISS:          0
BTB BRANCH_INDIRECT	ACCESS:          0  HIT:          0  MISS:          0
BTB BRANCH_CONDITIONAL	ACCESS:   47746666  HIT:   47746662  MISS:          4
BTB BRANCH_DIRECT_CALL	ACCESS:          0  HIT:          0  MISS:          0
BTB BRANCH_INDIRECT_CALL	ACCESS:          0  HIT:          0  MISS:          0
BTB BRANCH_RETURN	ACCESS:          0  HIT:          0  MISS:          0
BTB BRANCH_OTHER ACCESS:          0  HIT:          0  MISS:          0

L2C TOTAL     ACCESS:   19353805  HIT:    7570481  MISS:   11783324  HIT %:    39.1162  MISS %:    60.8838   MPKI: 58.9166
L2C LOAD      ACCESS:   11800172  HIT:    1872652  MISS:    9927520  HIT %:    15.8697  MISS %:    84.1303   MPKI: 49.6376
L2C DATA LOAD MPKI: 49.6376
L2C INSTRUCTION LOAD MPKI: 0
L2C RFO       ACCESS:      30527  HIT:         29  MISS:      30498  HIT %:  0.0949979  MISS %:     99.905   MPKI: 0.15249
L2C PREFETCH  ACCESS:    5302961  HIT:    3581834  MISS:    1721127  HIT %:     67.544  MISS %:     32.456   MPKI: 8.60563
L2C DATA PREFETCH MPKI: 8.60563
L2C INSTRUCTION PREFETCH MPKI: 0
L2C WRITEBACK ACCESS:      30527  HIT:      28367  MISS:       2160  HIT %:    92.9243  MISS %:     7.0757   MPKI: 0.0108
L2C LOAD TRANSLATION ACCESS:    1581569  HIT:    1483419  MISS:      98150  HIT %:    93.7941  MISS %:    6.20586   MPKI: 0.49075
L2C TRANSLATION FROM L1D PREFETCHER ACCESS:     608049  HIT:     604180  MISS:       3869  HIT %:    99.3637  MISS %:   0.636297   MPKI: 0.019345
L2C PREFETCH  REQUESTED:          0  ISSUED:          0  USEFUL:      22621  USELESS:    1702495
L2C USEFUL LOAD PREFETCHES:      22621 PREFETCH ISSUED TO LOWER LEVEL:    1722543  ACCURACY: 1.31323
L2C TIMELY PREFETCHES:      22621 LATE PREFETCHES: 1295 DROPPED PREFETCHES: 0
L2C PREFETCHES SAME FILL-ORIGIN LEVEL: 593552 DIFFERENT FILL-ORIGIN LEVEL: 0
L2C AVERAGE MISS LATENCY: 253.028 cycles
L2C RQ	ACCESS:   14021319	FORWARD:          0	MERGED:          0	TO_CACHE:   14021319
L2C WQ	ACCESS:      30529	FORWARD:          0	MERGED:          0	TO_CACHE:      30529
L2C PQ	ACCESS:    6444911	FORWARD:          0	MERGED:       2340	TO_CACHE:    6442571

L2C Instructions Evicting Data 0
L2C Translations Evicting Data 101636
L2C Data Evicting Data 11578870
L2C Instructions Evicting Instructions 0
L2C Translations Evicting Instructions 0
L2C Data Evicting Instructions 0
L2C Instructions Evicting Translations 0
L2C Translations Evicting Translations 386
L2C Data Evicting Translations 101215
L2C Dense regions hint from L2: 0
PSCL5 TOTAL     ACCESS:    2189599  HIT:    2189599  MISS:          0  HIT %:        100  MISS %:          0   MPKI: 0
PSCL5 LOAD TRANSLATION ACCESS:    1581550  HIT:    1581550  MISS:          0  HIT %:        100  MISS %:          0   MPKI: 0
PSCL5 TRANSLATION FROM L1D PREFETCHER ACCESS:     608049  HIT:     608049  MISS:          0  HIT %:        100  MISS %:          0   MPKI: 0
PSCL5 PREFETCH  REQUESTED:          0  ISSUED:          0  USEFUL:          0  USELESS:          0
PSCL5 USEFUL LOAD PREFETCHES:          0 PREFETCH ISSUED TO LOWER LEVEL:          0  ACCURACY: -nan
PSCL5 TIMELY PREFETCHES:          0 LATE PREFETCHES: 0 DROPPED PREFETCHES: 0
PSCL5 PREFETCHES SAME FILL-ORIGIN LEVEL: 0 DIFFERENT FILL-ORIGIN LEVEL: 0

PSCL4 TOTAL     ACCESS:    2189599  HIT:    2189599  MISS:          0  HIT %:        100  MISS %:          0   MPKI: 0
PSCL4 LOAD TRANSLATION ACCESS:    1581550  HIT:    1581550  MISS:          0  HIT %:        100  MISS %:          0   MPKI: 0
PSCL4 TRANSLATION FROM L1D PREFETCHER ACCESS:     608049  HIT:     608049  MISS:          0  HIT %:        100  MISS %:          0   MPKI: 0
PSCL4 PREFETCH  REQUESTED:          0  ISSUED:          0  USEFUL:          0  USELESS:          0
PSCL4 USEFUL LOAD PREFETCHES:          0 PREFETCH ISSUED TO LOWER LEVEL:          0  ACCURACY: -nan
PSCL4 TIMELY PREFETCHES:          0 LATE PREFETCHES: 0 DROPPED PREFETCHES: 0
PSCL4 PREFETCHES SAME FILL-ORIGIN LEVEL: 0 DIFFERENT FILL-ORIGIN LEVEL: 0

PSCL3 TOTAL     ACCESS:    2189599  HIT:    2189599  MISS:          0  HIT %:        100  MISS %:          0   MPKI: 0
PSCL3 LOAD TRANSLATION ACCESS:    1581550  HIT:    1581550  MISS:          0  HIT %:        100  MISS %:          0   MPKI: 0
PSCL3 TRANSLATION FROM L1D PREFETCHER ACCESS:     608049  HIT:     608049  MISS:          0  HIT %:        100  MISS %:          0   MPKI: 0
PSCL3 PREFETCH  REQUESTED:          0  ISSUED:          0  USEFUL:          0  USELESS:          0
PSCL3 USEFUL LOAD PREFETCHES:          0 PREFETCH ISSUED TO LOWER LEVEL:          0  ACCURACY: -nan
PSCL3 TIMELY PREFETCHES:          0 LATE PREFETCHES: 0 DROPPED PREFETCHES: 0
PSCL3 PREFETCHES SAME FILL-ORIGIN LEVEL: 0 DIFFERENT FILL-ORIGIN LEVEL: 0

PSCL2 TOTAL     ACCESS:    2188471  HIT:    2188399  MISS:         72  HIT %:    99.9967  MISS %: 0.00328997   MPKI: 0.00036
PSCL2 LOAD TRANSLATION ACCESS:    1581550  HIT:    1581478  MISS:         72  HIT %:    99.9954  MISS %:  0.0045525   MPKI: 0.00036
PSCL2 TRANSLATION FROM L1D PREFETCHER ACCESS:     606921  HIT:     606921  MISS:          0  HIT %:        100  MISS %:          0   MPKI: 0
PSCL2 PREFETCH  REQUESTED:          0  ISSUED:          0  USEFUL:          0  USELESS:          0
PSCL2 USEFUL LOAD PREFETCHES:          0 PREFETCH ISSUED TO LOWER LEVEL:          0  ACCURACY: -nan
PSCL2 TIMELY PREFETCHES:          0 LATE PREFETCHES: 0 DROPPED PREFETCHES: 0
PSCL2 PREFETCHES SAME FILL-ORIGIN LEVEL: 0 DIFFERENT FILL-ORIGIN LEVEL: 0

LLC TOTAL     ACCESS:   11811645  HIT:    3647769  MISS:    8163876  HIT %:    30.8828  MISS %:    69.1172   MPKI: 40.8194
LLC LOAD      ACCESS:    9926225  HIT:    3532627  MISS:    6393598  HIT %:    35.5888  MISS %:    64.4112   MPKI: 31.968
LLC RFO       ACCESS:      30498  HIT:          0  MISS:      30498  HIT %:          0  MISS %:        100   MPKI: 0.15249
LLC PREFETCH  ACCESS:    1722422  HIT:       2482  MISS:    1719940  HIT %:   0.144099  MISS %:    99.8559   MPKI: 8.5997
LLC WRITEBACK ACCESS:      30481  HIT:      28421  MISS:       2060  HIT %:    93.2417  MISS %:    6.75831   MPKI: 0.0103
LLC LOAD TRANSLATION ACCESS:      98150  HIT:      83823  MISS:      14327  HIT %:     85.403  MISS %:     14.597   MPKI: 0.071635
LLC TRANSLATION FROM L1D PREFETCHER ACCESS:       3869  HIT:        416  MISS:       3453  HIT %:    10.7521  MISS %:    89.2479   MPKI: 0.017265
LLC PREFETCH  REQUESTED:          0  ISSUED:          0  USEFUL:      45066  USELESS:    6850273
LLC USEFUL LOAD PREFETCHES:      45066 PREFETCH ISSUED TO LOWER LEVEL:    6883648  ACCURACY: 0.654682
LLC TIMELY PREFETCHES:      45066 LATE PREFETCHES: 0 DROPPED PREFETCHES: 0
LLC PREFETCHES SAME FILL-ORIGIN LEVEL: 0 DIFFERENT FILL-ORIGIN LEVEL: 0
LLC AVERAGE MISS LATENCY: 1286.21 cycles
LLC RQ	ACCESS:   40275263	FORWARD:          0	MERGED:          0	TO_CACHE:   40275263
LLC WQ	ACCESS:     122005	FORWARD:          0	MERGED:          0	TO_CACHE:     122005
LLC PQ	ACCESS:    6893700	FORWARD:          0	MERGED:          0	TO_CACHE:    6893700

LLC Dense regions hint to LLC: 0

RAW hits: 0
Loads Generated: 78128727
Loads sent to L1D: 78128727
Stores Generated: 1951815
Stores sent to L1D: 1951815
Major fault: 0 Minor fault: 35029
Allocated PAGES: 140116

CPU 2 cumulative IPC: 0.213304 instructions: 200000001 cycles: 937627474
ITLB TOTAL     ACCESS:   44569855  HIT:   44569855  MISS:          0  HIT %:        100  MISS %:          0   MPKI: 0
ITLB LOAD TRANSLATION ACCESS:   44569855  HIT:   44569855  MISS:          0  HIT %:        100  MISS %:          0   MPKI: 0
ITLB PREFETCH  REQUESTED:          0  ISSUED:          0  USEFUL:          0  USELESS:          0
ITLB USEFUL LOAD PREFETCHES:          0 PREFETCH ISSUED TO LOWER LEVEL:          0  ACCURACY: -nan
ITLB TIMELY PREFETCHES:          0 LATE PREFETCHES: 0 DROPPED PREFETCHES: 0
ITLB PREFETCHES SAME FILL-ORIGIN LEVEL: 0 DIFFERENT FILL-ORIGIN LEVEL: 0
ITLB AVERAGE MISS LATENCY: -nan cycles
ITLB RQ	ACCESS:   44608256	FORWARD:          0	MERGED:          0	TO_CACHE:   44608256

DTLB TOTAL     ACCESS:   56473202  HIT:   44436606  MISS:   12036596  HIT %:    78.6862  MISS %:    21.3138   MPKI: 60.183
DTLB LOAD TRANSLATION ACCESS:   56473202  HIT:   44436606  MISS:   12036596  HIT %:    78.6862  MISS %:    21.3138   MPKI: 60.183
DTLB PREFETCH  REQUESTED:          0  ISSUED:          0  USEFUL:          0  USELESS:          0
DTLB USEFUL LOAD PREFETCHES:          0 PREFETCH ISSUED TO LOWER LEVEL:          0  ACCURACY: -nan
DTLB TIMELY PREFETCHES:          0 LATE PREFETCHES: 0 DROPPED PREFETCHES: 0
DTLB PREFETCHES SAME FILL-ORIGIN LEVEL: 0 DIFFERENT FILL-ORIGIN LEVEL: 0
DTLB AVERAGE MISS LATENCY: 13.9654 cycles
DTLB RQ	ACCESS:   58919434	FORWARD:          0	MERGED:    2237849	TO_CACHE:   56681585

STLB TOTAL     ACCESS:   25992162  HIT:   24410653  MISS:    1581509  HIT %:    93.9154  MISS %:    6.08456   MPKI: 7.90754
STLB LOAD TRANSLATION ACCESS:   12036596  HIT:   10455186  MISS:    1581410  HIT %:    86.8617  MISS %:    13.1383   MPKI: 7.90705
STLB TRANSLATION FROM L1D PREFETCHER ACCESS:   13955566  HIT:   13955467  MISS:         99  HIT %:    99.9993  MISS %: 0.000709394   MPKI: 0.000495
STLB PREFETCH  REQUESTED:          0  ISSUED:          0  USEFUL:        101  USELESS:         17
STLB USEFUL LOAD PREFETCHES:        101 PREFETCH ISSUED TO LOWER LEVEL:          0  ACCURACY: inf
STLB TIMELY PREFETCHES:        101 LATE PREFETCHES: 2355 DROPPED PREFETCHES: 606806
STLB PREFETCHES SAME FILL-ORIGIN LEVEL: 0 DIFFERENT FILL-ORIGIN LEVEL: 0
STLB AVERAGE MISS LATENCY: 34.4146 cycles
STLB RQ	ACCESS:   48142982	FORWARD:          0	MERGED:   21510153	TO_CACHE:   26632829

STLB Hit, L1D data hit: 0
STLB Hit, L2C data hit: 0
STLB Hit, LLC data hit: 0
STLB Hit, LLC data miss: 0
STLB STLB hints to L2: 0
L1D TOTAL     ACCESS:   85995740  HIT:   72454140  MISS:   13541600  HIT %:    84.2532  MISS %:    15.7468   MPKI: 67.708
L1D LOAD      ACCESS:   56592900  HIT:   44758945  MISS:   11833955  HIT %:    79.0893  MISS %:    20.9107   MPKI: 59.1698
L1D RFO       ACCESS:    1924118  HIT:    1893591  MISS:      30527  HIT %:    98.4135  MISS %:    1.58655   MPKI: 0.152635
L1D PREFETCH  ACCESS:   27478722  HIT:   25801604  MISS:    1677118  HIT %:    93.8967  MISS %:    6.10333   MPKI: 8.38559
L1D PREFETCH  REQUESTED:   82483880  ISSUED:   82450186  USEFUL:    1677017  USELESS:       1250
L1D USEFUL LOAD PREFETCHES:    1677017 PREFETCH ISSUED TO LOWER LEVEL:    6477329  ACCURACY: 25.8906
L1D TIMELY PREFETCHES:    1677017 LATE PREFETCHES: 34358 DROPPED PREFETCHES: 1617460
L1D PREFETCHES SAME FILL-ORIGIN LEVEL: 1712616 DIFFERENT FILL-ORIGIN LEVEL: 4764713
L1D AVERAGE MISS LATENCY: 219.105 cycles
L1D RQ	ACCESS:   78194170	FORWARD:          0	MERGED:   21227433	TO_CACHE:   56966737
L1D WQ	ACCESS:    1952697	FORWARD:          0	MERGED:          0	TO_CACHE:    1952697
L1D PQ	ACCESS:   46355310	FORWARD:          0	MERGED:   10260434	TO_CACHE:   36094876

L1D UNIQUE REGIONS ACCESSED: 0
L1D REGIONS CONFLICTS: 0
L1D Cross Page Prefetch Requests: 2704705
L1D Same Page Prefetch Requests: 51748195
L1D ROI Sum of L1D PQ occupancy: 501191614
L1D PREFETCHES PUSHED FROM L2C: 0
L1I TOTAL     ACCESS:   44569854  HIT:   44569854  MISS:          0  HIT %:        100  MISS %:          0   MPKI: 0
L1I LOAD      ACCESS:   44569854  HIT:   44569854  MISS:          0  HIT %:        100  MISS %:          0   MPKI: 0
L1I PREFETCH  REQUESTED:          0  ISSUED:          0  USEFUL:          0  USELESS:          0
L1I USEFUL LOAD PREFETCHES:          0 PREFETCH ISSUED TO LOWER LEVEL:          0  ACCURACY: -nan
L1I TIMELY PREFETCHES:          0 LATE PREFETCHES: 0 DROPPED PREFETCHES: 0
L1I PREFETCHES SAME FILL-ORIGIN LEVEL: 0 DIFFERENT FILL-ORIGIN LEVEL: 0
L1I AVERAGE MISS LATENCY: -nan cycles
L1I RQ	ACCESS:   48145395	FORWARD:          0	MERGED:    3537139	TO_CACHE:   44608256

BTB TOTAL     ACCESS:   47745714  HIT:   47745710  MISS:          4  HIT %:        100  MISS %: 8.37772e-06   MPKI: 2e-05
BTB BRANCH_DIRECT_JUMP	ACCESS:          0  HIT:          0  MISS:          0
BTB BRANCH_INDIRECT	ACCESS:          0  HIT:          0  MISS:          0
BTB BRANCH_CONDITIONAL	ACCESS:   47745714  HIT:   47745710  MISS:          4
BTB BRANCH_DIRECT_CALL	ACCESS:          0  HIT:          0  MISS:          0
BTB BRANCH_INDIRECT_CALL	ACCESS:          0  HIT:          0  MISS:          0
BTB BRANCH_RETURN	ACCESS:          0  HIT:          0  MISS:          0
BTB BRANCH_OTHER ACCESS:          0  HIT:          0  MISS:          0

L2C TOTAL     ACCESS:   19382721  HIT:    7600703  MISS:   11782018  HIT %:    39.2138  MISS %:    60.7862   MPKI: 58.9101
L2C LOAD      ACCESS:   11799626  HIT:    1871172  MISS:    9928454  HIT %:    15.8579  MISS %:    84.1421   MPKI: 49.6423
L2C DATA LOAD MPKI: 49.6423
L2C INSTRUCTION LOAD MPKI: 0
L2C RFO       ACCESS:      30527  HIT:         28  MISS:      30499  HIT %:  0.0917221  MISS %:    99.9083   MPKI: 0.152495
L2C PREFETCH  ACCESS:    5331356  HIT:    3610533  MISS:    1720823  HIT %:    67.7226  MISS %:    32.2774   MPKI: 8.60411
L2C DATA PREFETCH MPKI: 8.60411
L2C INSTRUCTION PREFETCH MPKI: 0
L2C WRITEBACK ACCESS:      30526  HIT:      28360  MISS:       2166  HIT %:    92.9044  MISS %:    7.09559   MPKI: 0.01083
L2C LOAD TRANSLATION ACCESS:    1581426  HIT:    1485162  MISS:      96264  HIT %:    93.9128  MISS %:    6.08716   MPKI: 0.48132
L2C TRANSLATION FROM L1D PREFETCHER ACCESS:     609260  HIT:     605448  MISS:       3812  HIT %:    99.3743  MISS %:   0.625677   MPKI: 0.01906
L2C PREFETCH  REQUESTED:          0  ISSUED:          0  USEFUL:      22275  USELESS:    1703894
L2C USEFUL LOAD PREFETCHES:      22275 PREFETCH ISSUED TO LOWER LEVEL:    1723238  ACCURACY: 1.29262
L2C TIMELY PREFETCHES:      22275 LATE PREFETCHES: 1258 DROPPED PREFETCHES: 0
L2C PREFETCHES SAME FILL-ORIGIN LEVEL: 595350 DIFFERENT FILL-ORIGIN LEVEL: 0
L2C AVERAGE MISS LATENCY: 252.767 cycles
L2C RQ	ACCESS:   14032312	FORWARD:          0	MERGED:          0	TO_CACHE:   14032312
L2C WQ	ACCESS:      30540	FORWARD:          0	MERGED:          0	TO_CACHE:      30540
L2C PQ	ACCESS:    6477312	FORWARD:          0	MERGED:       2350	TO_CACHE:    6474962

L2C Instructions Evicting Data 0
L2C Translations Evicting Data 100000
L2C Data Evicting Data 11589713
L2C Instructions Evicting Instructions 0
L2C Translations Evicting Instructions 0
L2C Data Evicting Instructions 0
L2C Instructions Evicting Translations 0
L2C Translations Evicting Translations 97
L2C Data Evicting Translations 99770
L2C Dense regions hint from L2: 0
PSCL5 TOTAL     ACCESS:    2190667  HIT:    2190667  MISS:          0  HIT %:        100  MISS %:          0   MPKI: 0
PSCL5 LOAD TRANSLATION ACCESS:    1581407  HIT:    1581407  MISS:          0  HIT %:        100  MISS %:          0   MPKI: 0
PSCL5 TRANSLATION FROM L1D PREFETCHER ACCESS:     609260  HIT:     609260  MISS:          0  HIT %:        100  MISS %:          0   MPKI: 0
PSCL5 PREFETCH  REQUESTED:          0  ISSUED:          0  USEFUL:          0  USELESS:          0
PSCL5 USEFUL LOAD PREFETCHES:          0 PREFETCH ISSUED TO LOWER LEVEL:          0  ACCURACY: -nan
PSCL5 TIMELY PREFETCHES:          0 LATE PREFETCHES: 0 DROPPED PREFETCHES: 0
PSCL5 PREFETCHES SAME FILL-ORIGIN LEVEL: 0 DIFFERENT FILL-ORIGIN LEVEL: 0

PSCL4 TOTAL     ACCESS:    2190667  HIT:    2190667  MISS:          0  HIT %:        100  MISS %:          0   MPKI: 0
PSCL4 LOAD TRANSLATION ACCESS:    1581407  HIT:    1581407  MISS:          0  HIT %:        100  MISS %:          0   MPKI: 0
PSCL4 TRANSLATION FROM L1D PREFETCHER ACCESS:     609260  HIT:     609260  MISS:          0  HIT %:        100  MISS %:          0   MPKI: 0
PSCL4 PREFETCH  REQUESTED:          0  ISSUED:          0  USEFUL:          0  USELESS:          0
PSCL4 USEFUL LOAD PREFETCHES:          0 PREFETCH ISSUED TO LOWER LEVEL:          0  ACCURACY: -nan
PSCL4 TIMELY PREFETCHES:          0 LATE PREFETCHES: 0 DROPPED PREFETCHES: 0
PSCL4 PREFETCHES SAME FILL-ORIGIN LEVEL: 0 DIFFERENT FILL-ORIGIN LEVEL: 0

PSCL3 TOTAL     ACCESS:    2190667  HIT:    2190667  MISS:          0  HIT %:        100  MISS %:          0   MPKI: 0
PSCL3 LOAD TRANSLATION ACCESS:    1581407  HIT:    1581407  MISS:          0  HIT %:        100  MISS %:          0   MPKI: 0
PSCL3 TRANSLATION FROM L1D PREFETCHER ACCESS:     609260  HIT:     609260  MISS:          0  HIT %:        100  MISS %:          0   MPKI: 0
PSCL3 PREFETCH  REQUESTED:          0  ISSUED:          0  USEFUL:          0  USELESS:          0
PSCL3 USEFUL LOAD PREFETCHES:          0 PREFETCH ISSUED TO LOWER LEVEL:          0  ACCURACY: -nan
PSCL3 TIMELY PREFETCHES:          0 LATE PREFETCHES: 0 DROPPED PREFETCHES: 0
PSCL3 PREFETCHES SAME FILL-ORIGIN LEVEL: 0 DIFFERENT FILL-ORIGIN LEVEL: 0

PSCL2 TOTAL     ACCESS:    2189611  HIT:    2189539  MISS:         72  HIT %:    99.9967  MISS %: 0.00328826   MPKI: 0.00036
PSCL2 LOAD TRANSLATION ACCESS:    1581407  HIT:    1581335  MISS:         72  HIT %:    99.9954  MISS %: 0.00455291   MPKI: 0.00036
PSCL2 TRANSLATION FROM L1D PREFETCHER ACCESS:     608204  HIT:     608204  MISS:          0  HIT %:        100  MISS %:          0   MPKI: 0
PSCL2 PREFETCH  REQUESTED:          0  ISSUED:          0  USEFUL:          0  USELESS:          0
PSCL2 USEFUL LOAD PREFETCHES:          0 PREFETCH ISSUED TO LOWER LEVEL:          0  ACCURACY: -nan
PSCL2 TIMELY PREFETCHES:          0 LATE PREFETCHES: 0 DROPPED PREFETCHES: 0
PSCL2 PREFETCHES SAME FILL-ORIGIN LEVEL: 0 DIFFERENT FILL-ORIGIN LEVEL: 0

LLC TOTAL     ACCESS:   11810322  HIT:    3663456  MISS:    8146866  HIT %:    31.0191  MISS %:    68.9809   MPKI: 40.7343
LLC LOAD      ACCESS:    9927197  HIT:    3549603  MISS:    6377594  HIT %:    35.7563  MISS %:    64.2437   MPKI: 31.888
LLC RFO       ACCESS:      30499  HIT:          0  MISS:      30499  HIT %:          0  MISS %:        100   MPKI: 0.152495
LLC PREFETCH  ACCESS:    1722081  HIT:       2450  MISS:    1719631  HIT %:    0.14227  MISS %:    99.8577   MPKI: 8.59815
LLC WRITEBACK ACCESS:      30469  HIT:      28422  MISS:       2047  HIT %:    93.2817  MISS %:     6.7183   MPKI: 0.010235
LLC LOAD TRANSLATION ACCESS:      96264  HIT:      82627  MISS:      13637  HIT %:    85.8337  MISS %:    14.1663   MPKI: 0.068185
LLC TRANSLATION FROM L1D PREFETCHER ACCESS:       3812  HIT:        354  MISS:       3458  HIT %:    9.28646  MISS %:    90.7135   MPKI: 0.01729
LLC PREFETCH  REQUESTED:          0  ISSUED:          0  USEFUL:      45066  USELESS:    6850273
LLC USEFUL LOAD PREFETCHES:      45066 PREFETCH ISSUED TO LOWER LEVEL:    6883648  ACCURACY: 0.654682
LLC TIMELY PREFETCHES:      45066 LATE PREFETCHES: 0 DROPPED PREFETCHES: 0
LLC PREFETCHES SAME FILL-ORIGIN LEVEL: 0 DIFFERENT FILL-ORIGIN LEVEL: 0
LLC AVERAGE MISS LATENCY: 1288.9 cycles
LLC RQ	ACCESS:   40275263	FORWARD:          0	MERGED:          0	TO_CACHE:   40275263
LLC WQ	ACCESS:     122005	FORWARD:          0	MERGED:          0	TO_CACHE:     122005
LLC PQ	ACCESS:    6893700	FORWARD:          0	MERGED:          0	TO_CACHE:    6893700

LLC Dense regions hint to LLC: 0

RAW hits: 0
Loads Generated: 78128694
Loads sent to L1D: 78128691
Stores Generated: 1951833
Stores sent to L1D: 1951834
Major fault: 0 Minor fault: 35029
Allocated PAGES: 140116

CPU 3 cumulative IPC: 0.213149 instructions: 200000003 cycles: 938311586
ITLB TOTAL     ACCESS:   44569736  HIT:   44569736  MISS:          0  HIT %:        100  MISS %:          0   MPKI: 0
ITLB LOAD TRANSLATION ACCESS:   44569736  HIT:   44569736  MISS:          0  HIT %:        100  MISS %:          0   MPKI: 0
ITLB PREFETCH  REQUESTED:          0  ISSUED:          0  USEFUL:          0  USELESS:          0
ITLB USEFUL LOAD PREFETCHES:          0 PREFETCH ISSUED TO LOWER LEVEL:          0  ACCURACY: -nan
ITLB TIMELY PREFETCHES:          0 LATE PREFETCHES: 0 DROPPED PREFETCHES: 0
ITLB PREFETCHES SAME FILL-ORIGIN LEVEL: 0 DIFFERENT FILL-ORIGIN LEVEL: 0
ITLB AVERAGE MISS LATENCY: -nan cycles
ITLB RQ	ACCESS:   44569736	FORWARD:          0	MERGED:          0	TO_CACHE:   44569736

DTLB TOTAL     ACCESS:   56476755  HIT:   44440421  MISS:   12036334  HIT %:     78.688  MISS %:     21.312   MPKI: 60.1817
DTLB LOAD TRANSLATION ACCESS:   56476755  HIT:   44440421  MISS:   12036334  HIT %:     78.688  MISS %:     21.312   MPKI: 60.1817
DTLB PREFETCH  REQUESTED:          0  ISSUED:          0  USEFUL:          0  USELESS:          0
DTLB USEFUL LOAD PREFETCHES:          0 PREFETCH ISSUED TO LOWER LEVEL:          0  ACCURACY: -nan
DTLB TIMELY PREFETCHES:          0 LATE PREFETCHES: 0 DROPPED PREFETCHES: 0
DTLB PREFETCHES SAME FILL-ORIGIN LEVEL: 0 DIFFERENT FILL-ORIGIN LEVEL: 0
DTLB AVERAGE MISS LATENCY: 14.0659 cycles
DTLB RQ	ACCESS:   58877099	FORWARD:          0	MERGED:    2236603	TO_CACHE:   56640496

STLB TOTAL     ACCESS:   26008020  HIT:   24426677  MISS:    1581343  HIT %:    93.9198  MISS %:    6.08021   MPKI: 7.90671
STLB LOAD TRANSLATION ACCESS:   12036334  HIT:   10455106  MISS:    1581228  HIT %:    86.8629  MISS %:    13.1371   MPKI: 7.90614
STLB TRANSLATION FROM L1D PREFETCHER ACCESS:   13971686  HIT:   13971571  MISS:        115  HIT %:    99.9992  MISS %: 0.000823093   MPKI: 0.000575
STLB PREFETCH  REQUESTED:          0  ISSUED:          0  USEFUL:         91  USELESS:         24
STLB USEFUL LOAD PREFETCHES:         91 PREFETCH ISSUED TO LOWER LEVEL:          0  ACCURACY: inf
STLB TIMELY PREFETCHES:         91 LATE PREFETCHES: 2325 DROPPED PREFETCHES: 604762
STLB PREFETCHES SAME FILL-ORIGIN LEVEL: 0 DIFFERENT FILL-ORIGIN LEVEL: 0
STLB AVERAGE MISS LATENCY: 35.2533 cycles
STLB RQ	ACCESS:   48179829	FORWARD:          0	MERGED:   21555083	TO_CACHE:   26624746

STLB Hit, L1D data hit: 0
STLB Hit, L2C data hit: 0
STLB Hit, LLC data hit: 0
STLB Hit, LLC data miss: 0
STLB STLB hints to L2: 0
L1D TOTAL     ACCESS:   86040316  HIT:   72498881  MISS:   13541435  HIT %:    84.2615  MISS %:    15.7385   MPKI: 67.7072
L1D LOAD      ACCESS:   56596798  HIT:   44762646  MISS:   11834152  HIT %:    79.0904  MISS %:    20.9096   MPKI: 59.1708
L1D RFO       ACCESS:    1923746  HIT:    1893219  MISS:      30527  HIT %:    98.4131  MISS %:    1.58685   MPKI: 0.152635
L1D PREFETCH  ACCESS:   27519772  HIT:   25843016  MISS:    1676756  HIT %:    93.9071  MISS %:    6.09291   MPKI: 8.38378
L1D PREFETCH  REQUESTED:   82577924  ISSUED:   82542862  USEFUL:    1675617  USELESS:       1149
L1D USEFUL LOAD PREFETCHES:    1675617 PREFETCH ISSUED TO LOWER LEVEL:    6507011  ACCURACY: 25.7509
L1D TIMELY PREFETCHES:    1675617 LATE PREFETCHES: 34678 DROPPED PREFETCHES: 1615093
L1D PREFETCHES SAME FILL-ORIGIN LEVEL: 1711434 DIFFERENT FILL-ORIGIN LEVEL: 4795577
L1D AVERAGE MISS LATENCY: 218.81 cycles
L1D RQ	ACCESS:   78128495	FORWARD:          0	MERGED:   21203277	TO_CACHE:   56925218
L1D WQ	ACCESS:    1951881	FORWARD:          0	MERGED:          0	TO_CACHE:    1951881
L1D PQ	ACCESS:   46399368	FORWARD:          0	MERGED:   10255874	TO_CACHE:   36143494

L1D UNIQUE REGIONS ACCESSED: 0
L1D REGIONS CONFLICTS: 0
L1D Cross Page Prefetch Requests: 2677530
L1D Same Page Prefetch Requests: 51811016
L1D ROI Sum of L1D PQ occupancy: 502133067
L1D PREFETCHES PUSHED FROM L2C: 0
L1I TOTAL     ACCESS:   44569736  HIT:   44569736  MISS:          0  HIT %:        100  MISS %:          0   MPKI: 0
L1I LOAD      ACCESS:   44569736  HIT:   44569736  MISS:          0  HIT %:        100  MISS %:          0   MPKI: 0
L1I PREFETCH  REQUESTED:          0  ISSUED:          0  USEFUL:          0  USELESS:          0
L1I USEFUL LOAD PREFETCHES:          0 PREFETCH ISSUED TO LOWER LEVEL:          0  ACCURACY: -nan
L1I TIMELY PREFETCHES:          0 LATE PREFETCHES: 0 DROPPED PREFETCHES: 0
L1I PREFETCHES SAME FILL-ORIGIN LEVEL: 0 DIFFERENT FILL-ORIGIN LEVEL: 0
L1I AVERAGE MISS LATENCY: -nan cycles
L1I RQ	ACCESS:   48105001	FORWARD:          0	MERGED:    3535265	TO_CACHE:   44569736

BTB TOTAL     ACCESS:   47744838  HIT:   47744830  MISS:          8  HIT %:        100  MISS %: 1.67557e-05   MPKI: 4e-05
BTB BRANCH_DIRECT_JUMP	ACCESS:          0  HIT:          0  MISS:          0
BTB BRANCH_INDIRECT	ACCESS:          0  HIT:          0  MISS:          0
BTB BRANCH_CONDITIONAL	ACCESS:   47744838  HIT:   47744830  MISS:          8
BTB BRANCH_DIRECT_CALL	ACCESS:          0  HIT:          0  MISS:          0
BTB BRANCH_INDIRECT_CALL	ACCESS:          0  HIT:          0  MISS:          0
BTB BRANCH_RETURN	ACCESS:          0  HIT:          0  MISS:          0
BTB BRANCH_OTHER ACCESS:          0  HIT:          0  MISS:          0

L2C TOTAL     ACCESS:   19412415  HIT:    7618908  MISS:   11793507  HIT %:    39.2476  MISS %:    60.7524   MPKI: 58.9675
L2C LOAD      ACCESS:   11799474  HIT:    1870274  MISS:    9929200  HIT %:    15.8505  MISS %:    84.1495   MPKI: 49.646
L2C DATA LOAD MPKI: 49.646
L2C INSTRUCTION LOAD MPKI: 0
L2C RFO       ACCESS:      30527  HIT:         27  MISS:      30500  HIT %:  0.0884463  MISS %:    99.9116   MPKI: 0.1525
L2C PREFETCH  ACCESS:    5363447  HIT:    3641935  MISS:    1721512  HIT %:    67.9029  MISS %:    32.0971   MPKI: 8.60756
L2C DATA PREFETCH MPKI: 8.60756
L2C INSTRUCTION PREFETCH MPKI: 0
L2C WRITEBACK ACCESS:      30526  HIT:      28247  MISS:       2279  HIT %:    92.5342  MISS %:    7.46577   MPKI: 0.011395
L2C LOAD TRANSLATION ACCESS:    1581239  HIT:    1475102  MISS:     106137  HIT %:    93.2877  MISS %:    6.71227   MPKI: 0.530685
L2C TRANSLATION FROM L1D PREFETCHER ACCESS:     607202  HIT:     603323  MISS:       3879  HIT %:    99.3612  MISS %:   0.638832   MPKI: 0.019395
L2C PREFETCH  REQUESTED:          0  ISSUED:          0  USEFUL:      22308  USELESS:    1702956
L2C USEFUL LOAD PREFETCHES:      22308 PREFETCH ISSUED TO LOWER LEVEL:    1722606  ACCURACY: 1.29501
L2C TIMELY PREFETCHES:      22308 LATE PREFETCHES: 1093 DROPPED PREFETCHES: 0
L2C PREFETCHES SAME FILL-ORIGIN LEVEL: 611271 DIFFERENT FILL-ORIGIN LEVEL: 0
L2C AVERAGE MISS LATENCY: 252.628 cycles
L2C RQ	ACCESS:   14018442	FORWARD:          0	MERGED:          0	TO_CACHE:   14018442
L2C WQ	ACCESS:      30526	FORWARD:          0	MERGED:          0	TO_CACHE:      30526
L2C PQ	ACCESS:    6506989	FORWARD:          0	MERGED:       2670	TO_CACHE:    6504319

L2C Instructions Evicting Data 0
L2C Translations Evicting Data 108599
L2C Data Evicting Data 11573079
L2C Instructions Evicting Instructions 0
L2C Translations Evicting Instructions 0
L2C Data Evicting Instructions 0
L2C Instructions Evicting Translations 0
L2C Translations Evicting Translations 1417
L2C Data Evicting Translations 108133
L2C Dense regions hint from L2: 0
PSCL5 TOTAL     ACCESS:    2188425  HIT:    2188425  MISS:          0  HIT %:        100  MISS %:          0   MPKI: 0
PSCL5 LOAD TRANSLATION ACCESS:    1581223  HIT:    1581223  MISS:          0  HIT %:        100  MISS %:          0   MPKI: 0
PSCL5 TRANSLATION FROM L1D PREFETCHER ACCESS:     607202  HIT:     607202  MISS:          0  HIT %:        100  MISS %:          0   MPKI: 0
PSCL5 PREFETCH  REQUESTED:          0  ISSUED:          0  USEFUL:          0  USELESS:          0
PSCL5 USEFUL LOAD PREFETCHES:          0 PREFETCH ISSUED TO LOWER LEVEL:          0  ACCURACY: -nan
PSCL5 TIMELY PREFETCHES:          0 LATE PREFETCHES: 0 DROPPED PREFETCHES: 0
PSCL5 PREFETCHES SAME FILL-ORIGIN LEVEL: 0 DIFFERENT FILL-ORIGIN LEVEL: 0

PSCL4 TOTAL     ACCESS:    2188425  HIT:    2188425  MISS:          0  HIT %:        100  MISS %:          0   MPKI: 0
PSCL4 LOAD TRANSLATION ACCESS:    1581223  HIT:    1581223  MISS:          0  HIT %:        100  MISS %:          0   MPKI: 0
PSCL4 TRANSLATION FROM L1D PREFETCHER ACCESS:     607202  HIT:     607202  MISS:          0  HIT %:        100  MISS %:          0   MPKI: 0
PSCL4 PREFETCH  REQUESTED:          0  ISSUED:          0  USEFUL:          0  USELESS:          0
PSCL4 USEFUL LOAD PREFETCHES:          0 PREFETCH ISSUED TO LOWER LEVEL:          0  ACCURACY: -nan
PSCL4 TIMELY PREFETCHES:          0 LATE PREFETCHES: 0 DROPPED PREFETCHES: 0
PSCL4 PREFETCHES SAME FILL-ORIGIN LEVEL: 0 DIFFERENT FILL-ORIGIN LEVEL: 0

PSCL3 TOTAL     ACCESS:    2188425  HIT:    2188425  MISS:          0  HIT %:        100  MISS %:          0   MPKI: 0
PSCL3 LOAD TRANSLATION ACCESS:    1581223  HIT:    1581223  MISS:          0  HIT %:        100  MISS %:          0   MPKI: 0
PSCL3 TRANSLATION FROM L1D PREFETCHER ACCESS:     607202  HIT:     607202  MISS:          0  HIT %:        100  MISS %:          0   MPKI: 0
PSCL3 PREFETCH  REQUESTED:          0  ISSUED:          0  USEFUL:          0  USELESS:          0
PSCL3 USEFUL LOAD PREFETCHES:          0 PREFETCH ISSUED TO LOWER LEVEL:          0  ACCURACY: -nan
PSCL3 TIMELY PREFETCHES:          0 LATE PREFETCHES: 0 DROPPED PREFETCHES: 0
PSCL3 PREFETCHES SAME FILL-ORIGIN LEVEL: 0 DIFFERENT FILL-ORIGIN LEVEL: 0

PSCL2 TOTAL     ACCESS:    2187380  HIT:    2187311  MISS:         69  HIT %:    99.9968  MISS %: 0.00315446   MPKI: 0.000345
PSCL2 LOAD TRANSLATION ACCESS:    1581222  HIT:    1581153  MISS:         69  HIT %:    99.9956  MISS %: 0.00436371   MPKI: 0.000345
PSCL2 TRANSLATION FROM L1D PREFETCHER ACCESS:     606158  HIT:     606158  MISS:          0  HIT %:        100  MISS %:          0   MPKI: 0
PSCL2 PREFETCH  REQUESTED:          0  ISSUED:          0  USEFUL:          0  USELESS:          0
PSCL2 USEFUL LOAD PREFETCHES:          0 PREFETCH ISSUED TO LOWER LEVEL:          0  ACCURACY: -nan
PSCL2 TIMELY PREFETCHES:          0 LATE PREFETCHES: 0 DROPPED PREFETCHES: 0
PSCL2 PREFETCHES SAME FILL-ORIGIN LEVEL: 0 DIFFERENT FILL-ORIGIN LEVEL: 0

LLC TOTAL     ACCESS:   11821716  HIT:    3669743  MISS:    8151973  HIT %:    31.0424  MISS %:    68.9576   MPKI: 40.7599
LLC LOAD      ACCESS:    9928107  HIT:    3546605  MISS:    6381502  HIT %:    35.7229  MISS %:    64.2771   MPKI: 31.9075
LLC RFO       ACCESS:      30500  HIT:          2  MISS:      30498  HIT %: 0.00655738  MISS %:    99.9934   MPKI: 0.15249
LLC PREFETCH  ACCESS:    1722605  HIT:       2630  MISS:    1719975  HIT %:   0.152676  MISS %:    99.8473   MPKI: 8.59987
LLC WRITEBACK ACCESS:      30488  HIT:      28402  MISS:       2086  HIT %:     93.158  MISS %:    6.84204   MPKI: 0.01043
LLC LOAD TRANSLATION ACCESS:     106137  HIT:      91688  MISS:      14449  HIT %:    86.3865  MISS %:    13.6135   MPKI: 0.072245
LLC TRANSLATION FROM L1D PREFETCHER ACCESS:       3879  HIT:        416  MISS:       3463  HIT %:    10.7244  MISS %:    89.2756   MPKI: 0.017315
LLC PREFETCH  REQUESTED:          0  ISSUED:          0  USEFUL:      45066  USELESS:    6850273
LLC USEFUL LOAD PREFETCHES:      45066 PREFETCH ISSUED TO LOWER LEVEL:    6883648  ACCURACY: 0.654682
LLC TIMELY PREFETCHES:      45066 LATE PREFETCHES: 0 DROPPED PREFETCHES: 0
LLC PREFETCHES SAME FILL-ORIGIN LEVEL: 0 DIFFERENT FILL-ORIGIN LEVEL: 0
LLC AVERAGE MISS LATENCY: 1288.09 cycles
LLC RQ	ACCESS:   40275263	FORWARD:          0	MERGED:          0	TO_CACHE:   40275263
LLC WQ	ACCESS:     122005	FORWARD:          0	MERGED:          0	TO_CACHE:     122005
LLC PQ	ACCESS:    6893700	FORWARD:          0	MERGED:          0	TO_CACHE:    6893700

LLC Dense regions hint to LLC: 0

RAW hits: 0
Loads Generated: 78128495
Loads sent to L1D: 78128495
Stores Generated: 1951880
Stores sent to L1D: 1951881
Major fault: 0 Minor fault: 35029
Allocated PAGES: 140116

DRAM Statistics
 CHANNEL 0
 RQ ROW_BUFFER_HIT:    1762025  ROW_BUFFER_MISS:   30867647
 DBUS_CONGESTED:        162
 WQ ROW_BUFFER_HIT:       6691  ROW_BUFFER_MISS:     115046  FULL:          0

 AVG_CONGESTED_CYCLE: 5
 All warmup complete: 5
Channel 0 Bank busy for read cycles: 0
Channel 0 Bank busy for write cycles: 0
Channel 0
Rank 0
0banks busy for read cycles: 119859
0banks busy for write cycles: 0
1banks busy for read cycles: 18910382
1banks busy for write cycles: 32440
2banks busy for read cycles: 62654836
2banks busy for write cycles: 32186
3banks busy for read cycles: 113872259
3banks busy for write cycles: 31950
4banks busy for read cycles: 156384762
4banks busy for write cycles: 31746
5banks busy for read cycles: 180995608
5banks busy for write cycles: 31557
6banks busy for read cycles: 179717457
6banks busy for write cycles: 32058
7banks busy for read cycles: 144409256
7banks busy for write cycles: 179614
8banks busy for read cycles: 76872906
8banks busy for write cycles: 4002711

CPU 0 Branch Prediction Accuracy: 95.9521% MPKI: 9.72435 Average ROB Occupancy at Mispredict: 56.4282
Branch types
NOT_BRANCH: 152284935 75.9744%
BRANCH_DIRECT_JUMP: 0 0%
BRANCH_INDIRECT: 0 0%
BRANCH_CONDITIONAL: 48157649 24.0257%
BRANCH_DIRECT_CALL: 0 0%
BRANCH_INDIRECT_CALL: 0 0%
BRANCH_RETURN: 0 0%
BRANCH_OTHER: 0 0%


CPU 1 Branch Prediction Accuracy: 95.9487% MPKI: 9.73221 Average ROB Occupancy at Mispredict: 56.3697
Branch types
NOT_BRANCH: 151962289 75.9752%
BRANCH_DIRECT_JUMP: 0 0%
BRANCH_INDIRECT: 0 0%
BRANCH_CONDITIONAL: 48053546 24.0249%
BRANCH_DIRECT_CALL: 0 0%
BRANCH_INDIRECT_CALL: 0 0%
BRANCH_RETURN: 0 0%
BRANCH_OTHER: 0 0%


CPU 2 Branch Prediction Accuracy: 95.9501% MPKI: 9.72961 Average ROB Occupancy at Mispredict: 56.3924
Branch types
NOT_BRANCH: 152073419 75.9749%
BRANCH_DIRECT_JUMP: 0 0%
BRANCH_INDIRECT: 0 0%
BRANCH_CONDITIONAL: 48089530 24.0252%
BRANCH_DIRECT_CALL: 0 0%
BRANCH_INDIRECT_CALL: 0 0%
BRANCH_RETURN: 0 0%
BRANCH_OTHER: 0 0%


CPU 3 Branch Prediction Accuracy: 95.9484% MPKI: 9.73388 Average ROB Occupancy at Mispredict: 56.3685
Branch types
NOT_BRANCH: 151950135 75.9751%
BRANCH_DIRECT_JUMP: 0 0%
BRANCH_INDIRECT: 0 0%
BRANCH_CONDITIONAL: 48049529 24.0248%
BRANCH_DIRECT_CALL: 0 0%
BRANCH_INDIRECT_CALL: 0 0%
BRANCH_RETURN: 0 0%
BRANCH_OTHER: 0 0%

DRAM PAGES: 1048576
Allocated PAGES: 140116
