
*** ChampSim Multicore Out-of-Order Simulator ***

Warmup Instructions: 50000000
Simulation Instructions: 200000000
Number of CPUs: 4
LLC sets: 8192
LLC ways: 16
Off-chip DRAM Size: 4096 MB Channels: 1 Width: 64-bit Data Rate: 6400 MT/s
CPU 0 runs ./traces/cs/nutch_phase2_core0.trace.xz
.xz
CPU 1 runs ./traces/cs/nutch_phase2_core1.trace.xz
.xz
CPU 2 runs ./traces/cs/nutch_phase2_core2.trace.xz
.xz
CPU 3 runs ./traces/cs/nutch_phase2_core3.trace.xz
.xz
BTB has LRU replacement policy
ITLB has LRU replacement policy
DTLB has LRU replacement policy
STLB has LRU replacement policy
L1I has LRU replacement policy
History Sets: 8
History Ways: 16
BERTI Size: 16
BERTI Stride Size: 8
L1D has LRU replacement policy
Initialize SRRIP state for L2C
Initialize DRRIP state for LLC
BTB has LRU replacement policy
ITLB has LRU replacement policy
DTLB has LRU replacement policy
STLB has LRU replacement policy
L1I has LRU replacement policy
History Sets: 8
History Ways: 16
BERTI Size: 16
BERTI Stride Size: 8
L1D has LRU replacement policy
Initialize SRRIP state for L2C
Initialize DRRIP state for LLC
BTB has LRU replacement policy
ITLB has LRU replacement policy
DTLB has LRU replacement policy
STLB has LRU replacement policy
L1I has LRU replacement policy
History Sets: 8
History Ways: 16
BERTI Size: 16
BERTI Stride Size: 8
L1D has LRU replacement policy
Initialize SRRIP state for L2C
Initialize DRRIP state for LLC
BTB has LRU replacement policy
ITLB has LRU replacement policy
DTLB has LRU replacement policy
STLB has LRU replacement policy
L1I has LRU replacement policy
History Sets: 8
History Ways: 16
BERTI Size: 16
BERTI Stride Size: 8
L1D has LRU replacement policy
Initialize SRRIP state for L2C
Initialize DRRIP state for LLC
UNIQUE_ASID[0] = €
UNIQUE_ASID[1] = 
Heartbeat CPU 2 instructions: 10000003 cycles: 2769876 heartbeat IPC: 3.61027 cumulative IPC: 3.61027 (Simulation time: 0 hr 2 min 11 sec) 
Heartbeat CPU 1 instructions: 10000000 cycles: 2770944 heartbeat IPC: 3.60888 cumulative IPC: 3.60888 (Simulation time: 0 hr 2 min 11 sec) 
Heartbeat CPU 3 instructions: 10000001 cycles: 2771948 heartbeat IPC: 3.60757 cumulative IPC: 3.60757 (Simulation time: 0 hr 2 min 11 sec) 
Heartbeat CPU 0 instructions: 10000002 cycles: 2773505 heartbeat IPC: 3.60555 cumulative IPC: 3.60555 (Simulation time: 0 hr 2 min 11 sec) 
Heartbeat CPU 0 instructions: 20000001 cycles: 5409128 heartbeat IPC: 3.79417 cumulative IPC: 3.69745 (Simulation time: 0 hr 4 min 34 sec) 
Heartbeat CPU 3 instructions: 20000002 cycles: 5483847 heartbeat IPC: 3.68745 cumulative IPC: 3.64708 (Simulation time: 0 hr 4 min 38 sec) 
Heartbeat CPU 2 instructions: 20000001 cycles: 5540024 heartbeat IPC: 3.60991 cumulative IPC: 3.61009 (Simulation time: 0 hr 4 min 41 sec) 
Heartbeat CPU 1 instructions: 20000001 cycles: 5542398 heartbeat IPC: 3.60821 cumulative IPC: 3.60855 (Simulation time: 0 hr 4 min 41 sec) 
Heartbeat CPU 3 instructions: 30000001 cycles: 8171347 heartbeat IPC: 3.72093 cumulative IPC: 3.67137 (Simulation time: 0 hr 7 min 0 sec) 
Heartbeat CPU 2 instructions: 30000003 cycles: 8310213 heartbeat IPC: 3.60986 cumulative IPC: 3.61002 (Simulation time: 0 hr 7 min 6 sec) 
Heartbeat CPU 1 instructions: 30000003 cycles: 8312718 heartbeat IPC: 3.60969 cumulative IPC: 3.60893 (Simulation time: 0 hr 7 min 6 sec) 
Heartbeat CPU 0 instructions: 30000001 cycles: 8572485 heartbeat IPC: 3.1612 cumulative IPC: 3.49957 (Simulation time: 0 hr 7 min 16 sec) 
Heartbeat CPU 3 instructions: 40000001 cycles: 10859334 heartbeat IPC: 3.72026 cumulative IPC: 3.68347 (Simulation time: 0 hr 9 min 11 sec) 
Heartbeat CPU 2 instructions: 40000000 cycles: 11080660 heartbeat IPC: 3.60952 cumulative IPC: 3.60989 (Simulation time: 0 hr 9 min 21 sec) 
Heartbeat CPU 1 instructions: 40000003 cycles: 11085272 heartbeat IPC: 3.60678 cumulative IPC: 3.60839 (Simulation time: 0 hr 9 min 21 sec) 
Heartbeat CPU 0 instructions: 40000003 cycles: 11257410 heartbeat IPC: 3.7245 cumulative IPC: 3.55322 (Simulation time: 0 hr 9 min 29 sec) 
Heartbeat CPU 3 instructions: 50000002 cycles: 13546834 heartbeat IPC: 3.72093 cumulative IPC: 3.6909 (Simulation time: 0 hr 11 min 12 sec) 
Heartbeat CPU 2 instructions: 50000002 cycles: 13851208 heartbeat IPC: 3.6094 cumulative IPC: 3.60979 (Simulation time: 0 hr 11 min 26 sec) 
Heartbeat CPU 1 instructions: 50000002 cycles: 13856381 heartbeat IPC: 3.60866 cumulative IPC: 3.60845 (Simulation time: 0 hr 11 min 26 sec) 
Heartbeat CPU 0 instructions: 50000002 cycles: 14130845 heartbeat IPC: 3.48015 cumulative IPC: 3.53836 (Simulation time: 0 hr 11 min 39 sec) 

Warmup complete CPU 0 instructions: 50000002 cycles: 14130845 (Simulation time: 0 hr 11 min 39 sec) 
Warmup complete CPU 1 instructions: 50990711 cycles: 14130844 (Simulation time: 0 hr 11 min 39 sec) 
Warmup complete CPU 2 instructions: 51009334 cycles: 14130844 (Simulation time: 0 hr 11 min 39 sec) 
Warmup complete CPU 3 instructions: 52173060 cycles: 14130844 (Simulation time: 0 hr 11 min 39 sec) 

Heartbeat CPU 3 instructions: 60000001 cycles: 18724176 heartbeat IPC: 1.93149 cumulative IPC: 1.70398 (Simulation time: 0 hr 14 min 5 sec) 
Heartbeat CPU 2 instructions: 60000001 cycles: 19456818 heartbeat IPC: 1.78393 cumulative IPC: 1.68808 (Simulation time: 0 hr 14 min 24 sec) 
Heartbeat CPU 1 instructions: 60000001 cycles: 19687827 heartbeat IPC: 1.71484 cumulative IPC: 1.62126 (Simulation time: 0 hr 14 min 30 sec) 
Heartbeat CPU 0 instructions: 60000003 cycles: 20841492 heartbeat IPC: 1.49017 cumulative IPC: 1.49017 (Simulation time: 0 hr 15 min 10 sec) 
Heartbeat CPU 3 instructions: 70000003 cycles: 24632839 heartbeat IPC: 1.69243 cumulative IPC: 1.69748 (Simulation time: 0 hr 17 min 34 sec) 
Heartbeat CPU 2 instructions: 70000001 cycles: 25371393 heartbeat IPC: 1.69074 cumulative IPC: 1.68948 (Simulation time: 0 hr 17 min 58 sec) 
Heartbeat CPU 1 instructions: 70000002 cycles: 25671846 heartbeat IPC: 1.67112 cumulative IPC: 1.64711 (Simulation time: 0 hr 18 min 5 sec) 
Heartbeat CPU 3 instructions: 80000001 cycles: 30508020 heartbeat IPC: 1.70207 cumulative IPC: 1.69913 (Simulation time: 0 hr 20 min 8 sec) 
Heartbeat CPU 0 instructions: 70000003 cycles: 30515482 heartbeat IPC: 1.0337 cumulative IPC: 1.22066 (Simulation time: 0 hr 20 min 8 sec) 
Heartbeat CPU 2 instructions: 80000003 cycles: 31311165 heartbeat IPC: 1.68357 cumulative IPC: 1.68743 (Simulation time: 0 hr 20 min 36 sec) 
Heartbeat CPU 1 instructions: 80000003 cycles: 31660363 heartbeat IPC: 1.66986 cumulative IPC: 1.65488 (Simulation time: 0 hr 20 min 46 sec) 
Heartbeat CPU 3 instructions: 90000001 cycles: 36364698 heartbeat IPC: 1.70745 cumulative IPC: 1.70132 (Simulation time: 0 hr 23 min 17 sec) 
Heartbeat CPU 2 instructions: 90000002 cycles: 37259536 heartbeat IPC: 1.68113 cumulative IPC: 1.68581 (Simulation time: 0 hr 23 min 41 sec) 
Heartbeat CPU 1 instructions: 90000001 cycles: 37638758 heartbeat IPC: 1.67269 cumulative IPC: 1.65941 (Simulation time: 0 hr 23 min 54 sec) 
Heartbeat CPU 3 instructions: 100000001 cycles: 42198835 heartbeat IPC: 1.71405 cumulative IPC: 1.70397 (Simulation time: 0 hr 26 min 0 sec) 
Heartbeat CPU 0 instructions: 80000001 cycles: 42929657 heartbeat IPC: 0.805531 cumulative IPC: 1.04171 (Simulation time: 0 hr 26 min 21 sec) 
Heartbeat CPU 2 instructions: 100000002 cycles: 43189472 heartbeat IPC: 1.68636 cumulative IPC: 1.68593 (Simulation time: 0 hr 26 min 27 sec) 
Heartbeat CPU 1 instructions: 100000003 cycles: 43581938 heartbeat IPC: 1.6826 cumulative IPC: 1.66409 (Simulation time: 0 hr 26 min 37 sec) 
Heartbeat CPU 3 instructions: 110000000 cycles: 47983291 heartbeat IPC: 1.72877 cumulative IPC: 1.70821 (Simulation time: 0 hr 29 min 1 sec) 
Heartbeat CPU 2 instructions: 110000000 cycles: 49107350 heartbeat IPC: 1.68979 cumulative IPC: 1.68658 (Simulation time: 0 hr 29 min 41 sec) 
Heartbeat CPU 1 instructions: 110000000 cycles: 49507183 heartbeat IPC: 1.68769 cumulative IPC: 1.66804 (Simulation time: 0 hr 29 min 55 sec) 
Heartbeat CPU 3 instructions: 120000002 cycles: 53836169 heartbeat IPC: 1.70856 cumulative IPC: 1.70826 (Simulation time: 0 hr 32 min 2 sec) 
Heartbeat CPU 2 instructions: 120000000 cycles: 55023800 heartbeat IPC: 1.6902 cumulative IPC: 1.6871 (Simulation time: 0 hr 32 min 31 sec) 
Heartbeat CPU 1 instructions: 120000002 cycles: 55437162 heartbeat IPC: 1.68635 cumulative IPC: 1.67067 (Simulation time: 0 hr 32 min 45 sec) 
Heartbeat CPU 0 instructions: 90000001 cycles: 55805415 heartbeat IPC: 0.776653 cumulative IPC: 0.959818 (Simulation time: 0 hr 32 min 55 sec) 
Heartbeat CPU 3 instructions: 130000002 cycles: 59716228 heartbeat IPC: 1.70066 cumulative IPC: 1.70728 (Simulation time: 0 hr 35 min 14 sec) 
Heartbeat CPU 2 instructions: 130000002 cycles: 60938813 heartbeat IPC: 1.69061 cumulative IPC: 1.68755 (Simulation time: 0 hr 35 min 58 sec) 
Heartbeat CPU 1 instructions: 130000000 cycles: 61373593 heartbeat IPC: 1.68451 cumulative IPC: 1.67241 (Simulation time: 0 hr 36 min 14 sec) 
Heartbeat CPU 3 instructions: 140000002 cycles: 65612138 heartbeat IPC: 1.69609 cumulative IPC: 1.706 (Simulation time: 0 hr 38 min 14 sec) 
Heartbeat CPU 2 instructions: 140000000 cycles: 66875845 heartbeat IPC: 1.68434 cumulative IPC: 1.68719 (Simulation time: 0 hr 38 min 53 sec) 
Heartbeat CPU 1 instructions: 140000003 cycles: 67346190 heartbeat IPC: 1.67431 cumulative IPC: 1.67262 (Simulation time: 0 hr 39 min 10 sec) 
Heartbeat CPU 0 instructions: 100000001 cycles: 67920309 heartbeat IPC: 0.82543 cumulative IPC: 0.92955 (Simulation time: 0 hr 39 min 30 sec) 
Heartbeat CPU 3 instructions: 150000002 cycles: 71509055 heartbeat IPC: 1.6958 cumulative IPC: 1.70495 (Simulation time: 0 hr 41 min 44 sec) 
Heartbeat CPU 2 instructions: 150000002 cycles: 72820402 heartbeat IPC: 1.68221 cumulative IPC: 1.68668 (Simulation time: 0 hr 42 min 33 sec) 
Heartbeat CPU 1 instructions: 150000001 cycles: 73267172 heartbeat IPC: 1.68891 cumulative IPC: 1.67425 (Simulation time: 0 hr 42 min 48 sec) 
Heartbeat CPU 3 instructions: 160000001 cycles: 77412880 heartbeat IPC: 1.69382 cumulative IPC: 1.70391 (Simulation time: 0 hr 44 min 55 sec) 
Heartbeat CPU 2 instructions: 160000001 cycles: 78745975 heartbeat IPC: 1.6876 cumulative IPC: 1.68677 (Simulation time: 0 hr 45 min 37 sec) 
Heartbeat CPU 1 instructions: 160000003 cycles: 79246390 heartbeat IPC: 1.67246 cumulative IPC: 1.67409 (Simulation time: 0 hr 45 min 51 sec) 
Heartbeat CPU 0 instructions: 110000000 cycles: 82212642 heartbeat IPC: 0.699676 cumulative IPC: 0.881293 (Simulation time: 0 hr 47 min 28 sec) 
Heartbeat CPU 3 instructions: 170000003 cycles: 83364251 heartbeat IPC: 1.68029 cumulative IPC: 1.70188 (Simulation time: 0 hr 48 min 7 sec) 
Heartbeat CPU 2 instructions: 170000002 cycles: 84660634 heartbeat IPC: 1.69071 cumulative IPC: 1.6871 (Simulation time: 0 hr 48 min 44 sec) 
Heartbeat CPU 1 instructions: 170000001 cycles: 85188487 heartbeat IPC: 1.68291 cumulative IPC: 1.67483 (Simulation time: 0 hr 49 min 3 sec) 
Heartbeat CPU 3 instructions: 180000001 cycles: 89356415 heartbeat IPC: 1.66885 cumulative IPC: 1.69925 (Simulation time: 0 hr 51 min 40 sec) 
Heartbeat CPU 2 instructions: 180000003 cycles: 90599938 heartbeat IPC: 1.6837 cumulative IPC: 1.68683 (Simulation time: 0 hr 52 min 19 sec) 
Heartbeat CPU 1 instructions: 180000000 cycles: 91169168 heartbeat IPC: 1.67205 cumulative IPC: 1.67461 (Simulation time: 0 hr 52 min 36 sec) 
Heartbeat CPU 0 instructions: 120000002 cycles: 92016238 heartbeat IPC: 1.02003 cumulative IPC: 0.898756 (Simulation time: 0 hr 53 min 8 sec) 
Heartbeat CPU 3 instructions: 190000001 cycles: 95361580 heartbeat IPC: 1.66523 cumulative IPC: 1.69673 (Simulation time: 0 hr 55 min 15 sec) 
Heartbeat CPU 2 instructions: 190000001 cycles: 96548386 heartbeat IPC: 1.68111 cumulative IPC: 1.68642 (Simulation time: 0 hr 55 min 56 sec) 
Heartbeat CPU 1 instructions: 190000002 cycles: 97148932 heartbeat IPC: 1.67231 cumulative IPC: 1.67445 (Simulation time: 0 hr 56 min 16 sec) 
Heartbeat CPU 3 instructions: 200000001 cycles: 101275694 heartbeat IPC: 1.69087 cumulative IPC: 1.69634 (Simulation time: 0 hr 58 min 29 sec) 
Heartbeat CPU 2 instructions: 200000002 cycles: 102476270 heartbeat IPC: 1.68694 cumulative IPC: 1.68646 (Simulation time: 0 hr 59 min 5 sec) 
Heartbeat CPU 1 instructions: 200000001 cycles: 103087790 heartbeat IPC: 1.68383 cumulative IPC: 1.67507 (Simulation time: 0 hr 59 min 23 sec) 
Heartbeat CPU 3 instructions: 210000001 cycles: 107147744 heartbeat IPC: 1.70298 cumulative IPC: 1.69676 (Simulation time: 1 hr 1 min 30 sec) 
Heartbeat CPU 2 instructions: 210000003 cycles: 108394036 heartbeat IPC: 1.68983 cumulative IPC: 1.68667 (Simulation time: 1 hr 2 min 1 sec) 
Heartbeat CPU 0 instructions: 130000000 cycles: 108563718 heartbeat IPC: 0.604321 cumulative IPC: 0.847163 (Simulation time: 1 hr 2 min 5 sec) 
Heartbeat CPU 1 instructions: 210000001 cycles: 109012883 heartbeat IPC: 1.68774 cumulative IPC: 1.67586 (Simulation time: 1 hr 2 min 20 sec) 
Heartbeat CPU 3 instructions: 220000000 cycles: 113024464 heartbeat IPC: 1.70163 cumulative IPC: 1.69705 (Simulation time: 1 hr 4 min 27 sec) 
Heartbeat CPU 2 instructions: 220000000 cycles: 114310480 heartbeat IPC: 1.6902 cumulative IPC: 1.68688 (Simulation time: 1 hr 5 min 0 sec) 
Heartbeat CPU 1 instructions: 220000000 cycles: 114942235 heartbeat IPC: 1.68652 cumulative IPC: 1.67649 (Simulation time: 1 hr 5 min 21 sec) 
Heartbeat CPU 3 instructions: 230000002 cycles: 118902324 heartbeat IPC: 1.7013 cumulative IPC: 1.69728 (Simulation time: 1 hr 7 min 36 sec) 
Heartbeat CPU 0 instructions: 140000003 cycles: 119811668 heartbeat IPC: 0.889051 cumulative IPC: 0.851621 (Simulation time: 1 hr 7 min 59 sec) 
Heartbeat CPU 2 instructions: 230000000 cycles: 120225568 heartbeat IPC: 1.69059 cumulative IPC: 1.68708 (Simulation time: 1 hr 8 min 9 sec) 
Heartbeat CPU 1 instructions: 230000000 cycles: 120878967 heartbeat IPC: 1.68443 cumulative IPC: 1.67693 (Simulation time: 1 hr 8 min 27 sec) 
Heartbeat CPU 3 instructions: 240000002 cycles: 124761800 heartbeat IPC: 1.70664 cumulative IPC: 1.69778 (Simulation time: 1 hr 10 min 6 sec) 
Heartbeat CPU 2 instructions: 240000003 cycles: 126162282 heartbeat IPC: 1.68443 cumulative IPC: 1.68694 (Simulation time: 1 hr 10 min 48 sec) 
Heartbeat CPU 1 instructions: 240000003 cycles: 126820580 heartbeat IPC: 1.68305 cumulative IPC: 1.67725 (Simulation time: 1 hr 11 min 7 sec) 
Heartbeat CPU 3 instructions: 250000002 cycles: 130609033 heartbeat IPC: 1.71021 cumulative IPC: 1.6984 (Simulation time: 1 hr 13 min 19 sec) 
Heartbeat CPU 0 instructions: 150000001 cycles: 130811016 heartbeat IPC: 0.909145 cumulative IPC: 0.857044 (Simulation time: 1 hr 13 min 24 sec) 
Finished CPU 3 instructions: 200000002 cycles: 117748785 cumulative IPC: 1.69853 (Simulation time: 1 hr 13 min 53 sec) 
Heartbeat CPU 2 instructions: 250000000 cycles: 132106693 heartbeat IPC: 1.68225 cumulative IPC: 1.68671 (Simulation time: 1 hr 13 min 59 sec) 
Finished CPU 2 instructions: 200000000 cycles: 118575841 cumulative IPC: 1.68668 (Simulation time: 1 hr 14 min 14 sec) 
Heartbeat CPU 1 instructions: 250000001 cycles: 132741891 heartbeat IPC: 1.68881 cumulative IPC: 1.67783 (Simulation time: 1 hr 14 min 15 sec) 
Finished CPU 1 instructions: 200000000 cycles: 119197870 cumulative IPC: 1.67788 (Simulation time: 1 hr 14 min 31 sec) 
Heartbeat CPU 3 instructions: 260000001 cycles: 136423216 heartbeat IPC: 1.71993 cumulative IPC: 1.69943 (Simulation time: 1 hr 15 min 47 sec) 
Heartbeat CPU 2 instructions: 260000003 cycles: 138032240 heartbeat IPC: 1.68761 cumulative IPC: 1.68675 (Simulation time: 1 hr 16 min 35 sec) 
Heartbeat CPU 0 instructions: 160000000 cycles: 138309217 heartbeat IPC: 1.33365 cumulative IPC: 0.885823 (Simulation time: 1 hr 16 min 42 sec) 
Heartbeat CPU 1 instructions: 260000003 cycles: 138696716 heartbeat IPC: 1.67931 cumulative IPC: 1.6779 (Simulation time: 1 hr 16 min 50 sec) 
Heartbeat CPU 3 instructions: 270000003 cycles: 142259117 heartbeat IPC: 1.71353 cumulative IPC: 1.70007 (Simulation time: 1 hr 19 min 3 sec) 
Heartbeat CPU 2 instructions: 270000001 cycles: 143946807 heartbeat IPC: 1.69074 cumulative IPC: 1.68693 (Simulation time: 1 hr 20 min 3 sec) 
Heartbeat CPU 1 instructions: 270000003 cycles: 144638447 heartbeat IPC: 1.68301 cumulative IPC: 1.67813 (Simulation time: 1 hr 20 min 27 sec) 
Heartbeat CPU 3 instructions: 280000001 cycles: 148079486 heartbeat IPC: 1.7181 cumulative IPC: 1.70085 (Simulation time: 1 hr 22 min 14 sec) 
Heartbeat CPU 0 instructions: 170000002 cycles: 148395894 heartbeat IPC: 0.991407 cumulative IPC: 0.893755 (Simulation time: 1 hr 22 min 22 sec) 
Heartbeat CPU 2 instructions: 280000003 cycles: 149886035 heartbeat IPC: 1.68372 cumulative IPC: 1.68679 (Simulation time: 1 hr 23 min 0 sec) 
Heartbeat CPU 1 instructions: 280000001 cycles: 150617462 heartbeat IPC: 1.67252 cumulative IPC: 1.67789 (Simulation time: 1 hr 23 min 24 sec) 
Heartbeat CPU 3 instructions: 290000001 cycles: 153890509 heartbeat IPC: 1.72087 cumulative IPC: 1.70169 (Simulation time: 1 hr 24 min 55 sec) 
Heartbeat CPU 2 instructions: 290000002 cycles: 155834505 heartbeat IPC: 1.6811 cumulative IPC: 1.68655 (Simulation time: 1 hr 25 min 41 sec) 
Heartbeat CPU 1 instructions: 290000001 cycles: 156598184 heartbeat IPC: 1.67204 cumulative IPC: 1.67764 (Simulation time: 1 hr 25 min 58 sec) 
Heartbeat CPU 3 instructions: 300000002 cycles: 159849045 heartbeat IPC: 1.67826 cumulative IPC: 1.70073 (Simulation time: 1 hr 27 min 46 sec) 
Heartbeat CPU 0 instructions: 180000000 cycles: 160647402 heartbeat IPC: 0.816226 cumulative IPC: 0.887272 (Simulation time: 1 hr 28 min 7 sec) 
Heartbeat CPU 2 instructions: 300000002 cycles: 161762488 heartbeat IPC: 1.68691 cumulative IPC: 1.68657 (Simulation time: 1 hr 28 min 44 sec) 
Heartbeat CPU 1 instructions: 300000001 cycles: 162535960 heartbeat IPC: 1.68413 cumulative IPC: 1.6779 (Simulation time: 1 hr 29 min 4 sec) 
Heartbeat CPU 3 instructions: 310000001 cycles: 165732543 heartbeat IPC: 1.69967 cumulative IPC: 1.70069 (Simulation time: 1 hr 30 min 40 sec) 
Heartbeat CPU 2 instructions: 310000003 cycles: 167680379 heartbeat IPC: 1.68979 cumulative IPC: 1.68669 (Simulation time: 1 hr 31 min 35 sec) 
Heartbeat CPU 1 instructions: 310000000 cycles: 168460067 heartbeat IPC: 1.68802 cumulative IPC: 1.67829 (Simulation time: 1 hr 32 min 2 sec) 
Heartbeat CPU 3 instructions: 320000002 cycles: 171630804 heartbeat IPC: 1.69542 cumulative IPC: 1.70049 (Simulation time: 1 hr 33 min 51 sec) 
Heartbeat CPU 0 instructions: 190000002 cycles: 173564371 heartbeat IPC: 0.774176 cumulative IPC: 0.878109 (Simulation time: 1 hr 34 min 53 sec) 
Heartbeat CPU 2 instructions: 320000001 cycles: 173596648 heartbeat IPC: 1.69025 cumulative IPC: 1.68682 (Simulation time: 1 hr 34 min 54 sec) 
Heartbeat CPU 1 instructions: 320000002 cycles: 174389286 heartbeat IPC: 1.68656 cumulative IPC: 1.6786 (Simulation time: 1 hr 35 min 22 sec) 
Heartbeat CPU 3 instructions: 330000000 cycles: 177534402 heartbeat IPC: 1.69388 cumulative IPC: 1.70025 (Simulation time: 1 hr 37 min 17 sec) 
Heartbeat CPU 2 instructions: 330000000 cycles: 179511705 heartbeat IPC: 1.6906 cumulative IPC: 1.68696 (Simulation time: 1 hr 38 min 26 sec) 
Heartbeat CPU 1 instructions: 330000000 cycles: 180326407 heartbeat IPC: 1.68432 cumulative IPC: 1.6788 (Simulation time: 1 hr 38 min 52 sec) 
Heartbeat CPU 3 instructions: 340000002 cycles: 183508341 heartbeat IPC: 1.67394 cumulative IPC: 1.69932 (Simulation time: 1 hr 40 min 28 sec) 
Heartbeat CPU 0 instructions: 200000003 cycles: 185439979 heartbeat IPC: 0.842062 cumulative IPC: 0.87561 (Simulation time: 1 hr 41 min 21 sec) 
Heartbeat CPU 2 instructions: 340000001 cycles: 185448332 heartbeat IPC: 1.68446 cumulative IPC: 1.68687 (Simulation time: 1 hr 41 min 21 sec) 
Heartbeat CPU 1 instructions: 340000001 cycles: 186266906 heartbeat IPC: 1.68336 cumulative IPC: 1.67896 (Simulation time: 1 hr 41 min 47 sec) 
Heartbeat CPU 3 instructions: 350000002 cycles: 189506598 heartbeat IPC: 1.66715 cumulative IPC: 1.69822 (Simulation time: 1 hr 43 min 34 sec) 
Heartbeat CPU 2 instructions: 350000000 cycles: 191392851 heartbeat IPC: 1.68222 cumulative IPC: 1.68672 (Simulation time: 1 hr 44 min 40 sec) 
Heartbeat CPU 1 instructions: 350000001 cycles: 192188381 heartbeat IPC: 1.68877 cumulative IPC: 1.67928 (Simulation time: 1 hr 45 min 4 sec) 
Heartbeat CPU 3 instructions: 360000001 cycles: 195396262 heartbeat IPC: 1.69789 cumulative IPC: 1.69821 (Simulation time: 1 hr 46 min 56 sec) 
Heartbeat CPU 2 instructions: 360000003 cycles: 197318339 heartbeat IPC: 1.68763 cumulative IPC: 1.68675 (Simulation time: 1 hr 47 min 50 sec) 
Heartbeat CPU 1 instructions: 360000003 cycles: 198136297 heartbeat IPC: 1.68126 cumulative IPC: 1.67935 (Simulation time: 1 hr 48 min 12 sec) 
Heartbeat CPU 0 instructions: 210000001 cycles: 199685226 heartbeat IPC: 0.701988 cumulative IPC: 0.862281 (Simulation time: 1 hr 48 min 52 sec) 
Heartbeat CPU 3 instructions: 370000003 cycles: 201382689 heartbeat IPC: 1.67045 cumulative IPC: 1.69732 (Simulation time: 1 hr 49 min 37 sec) 
Heartbeat CPU 2 instructions: 370000001 cycles: 203233011 heartbeat IPC: 1.69071 cumulative IPC: 1.68687 (Simulation time: 1 hr 50 min 37 sec) 
Heartbeat CPU 1 instructions: 370000003 cycles: 204076982 heartbeat IPC: 1.68331 cumulative IPC: 1.67947 (Simulation time: 1 hr 51 min 11 sec) 
Heartbeat CPU 3 instructions: 380000001 cycles: 207304228 heartbeat IPC: 1.68875 cumulative IPC: 1.69706 (Simulation time: 1 hr 52 min 58 sec) 
Heartbeat CPU 2 instructions: 380000003 cycles: 209172238 heartbeat IPC: 1.68372 cumulative IPC: 1.68677 (Simulation time: 1 hr 54 min 13 sec) 
Heartbeat CPU 0 instructions: 220000000 cycles: 209487493 heartbeat IPC: 1.02017 cumulative IPC: 0.870203 (Simulation time: 1 hr 54 min 23 sec) 
Heartbeat CPU 1 instructions: 380000001 cycles: 210057840 heartbeat IPC: 1.672 cumulative IPC: 1.67924 (Simulation time: 1 hr 54 min 40 sec) 
Heartbeat CPU 3 instructions: 390000001 cycles: 213195453 heartbeat IPC: 1.69744 cumulative IPC: 1.69707 (Simulation time: 1 hr 56 min 26 sec) 
Heartbeat CPU 2 instructions: 390000001 cycles: 215120637 heartbeat IPC: 1.68112 cumulative IPC: 1.68661 (Simulation time: 1 hr 57 min 23 sec) 
Heartbeat CPU 1 instructions: 390000003 cycles: 216036664 heartbeat IPC: 1.67257 cumulative IPC: 1.67905 (Simulation time: 1 hr 57 min 54 sec) 
Heartbeat CPU 3 instructions: 400000003 cycles: 219070704 heartbeat IPC: 1.70206 cumulative IPC: 1.69721 (Simulation time: 1 hr 59 min 21 sec) 
Heartbeat CPU 2 instructions: 400000000 cycles: 221048638 heartbeat IPC: 1.68691 cumulative IPC: 1.68662 (Simulation time: 2 hr 0 min 24 sec) 
Heartbeat CPU 1 instructions: 400000001 cycles: 221973924 heartbeat IPC: 1.68428 cumulative IPC: 1.6792 (Simulation time: 2 hr 0 min 51 sec) 
Heartbeat CPU 3 instructions: 410000001 cycles: 224911794 heartbeat IPC: 1.71201 cumulative IPC: 1.69762 (Simulation time: 2 hr 2 min 20 sec) 
Heartbeat CPU 0 instructions: 230000000 cycles: 226031526 heartbeat IPC: 0.604448 cumulative IPC: 0.849455 (Simulation time: 2 hr 3 min 0 sec) 
Heartbeat CPU 2 instructions: 410000000 cycles: 226966498 heartbeat IPC: 1.6898 cumulative IPC: 1.6867 (Simulation time: 2 hr 3 min 39 sec) 
Heartbeat CPU 1 instructions: 410000003 cycles: 227899922 heartbeat IPC: 1.68748 cumulative IPC: 1.67943 (Simulation time: 2 hr 4 min 10 sec) 
Heartbeat CPU 3 instructions: 420000002 cycles: 230764691 heartbeat IPC: 1.70856 cumulative IPC: 1.69792 (Simulation time: 2 hr 5 min 42 sec) 
Heartbeat CPU 2 instructions: 420000000 cycles: 232882780 heartbeat IPC: 1.69025 cumulative IPC: 1.6868 (Simulation time: 2 hr 7 min 3 sec) 
Heartbeat CPU 1 instructions: 420000002 cycles: 233829629 heartbeat IPC: 1.68642 cumulative IPC: 1.67961 (Simulation time: 2 hr 7 min 39 sec) 
Heartbeat CPU 3 instructions: 430000002 cycles: 236621561 heartbeat IPC: 1.7074 cumulative IPC: 1.69817 (Simulation time: 2 hr 8 min 56 sec) 
Heartbeat CPU 0 instructions: 240000003 cycles: 237316353 heartbeat IPC: 0.886146 cumulative IPC: 0.85131 (Simulation time: 2 hr 9 min 20 sec) 
Heartbeat CPU 2 instructions: 430000001 cycles: 238797890 heartbeat IPC: 1.69059 cumulative IPC: 1.6869 (Simulation time: 2 hr 10 min 12 sec) 
Heartbeat CPU 1 instructions: 430000003 cycles: 239765776 heartbeat IPC: 1.68459 cumulative IPC: 1.67975 (Simulation time: 2 hr 10 min 45 sec) 
Heartbeat CPU 3 instructions: 440000000 cycles: 242457617 heartbeat IPC: 1.71349 cumulative IPC: 1.69856 (Simulation time: 2 hr 11 min 55 sec) 
Heartbeat CPU 2 instructions: 440000000 cycles: 244734705 heartbeat IPC: 1.6844 cumulative IPC: 1.68684 (Simulation time: 2 hr 13 min 3 sec) 
Heartbeat CPU 1 instructions: 440000000 cycles: 245705552 heartbeat IPC: 1.68356 cumulative IPC: 1.67984 (Simulation time: 2 hr 13 min 36 sec) 
Heartbeat CPU 0 instructions: 250000000 cycles: 248215292 heartbeat IPC: 0.91752 cumulative IPC: 0.854393 (Simulation time: 2 hr 15 min 7 sec) 
Finished CPU 0 instructions: 200000002 cycles: 234084448 cumulative IPC: 0.854393 (Simulation time: 2 hr 15 min 7 sec) 

ChampSim completed all CPUs

Total Simulation Statistics (not including warmup)

CPU 0 cumulative IPC: 0.854393 instructions: 200000002 cycles: 234084448
ITLB TOTAL     ACCESS:   35567269  HIT:   34922908  MISS:     644361  HIT %:    98.1883  MISS %:    1.81167   MPKI: 3.2218
ITLB LOAD      ACCESS:          0  HIT:          0  MISS:          0  HIT %:       -nan  MISS %:       -nan   MPKI: 0
ITLB RFO       ACCESS:          0  HIT:          0  MISS:          0  HIT %:       -nan  MISS %:       -nan   MPKI: 0
ITLB PREFETCH  ACCESS:          0  HIT:          0  MISS:          0  HIT %:       -nan  MISS %:       -nan   MPKI: 0
ITLB WRITEBACK ACCESS:          0  HIT:          0  MISS:          0  HIT %:       -nan  MISS %:       -nan   MPKI: 0
DTLB TOTAL     ACCESS:   24618022  HIT:   16832761  MISS:    7785261  HIT %:    68.3758  MISS %:    31.6242   MPKI: 38.9263
DTLB LOAD      ACCESS:          0  HIT:          0  MISS:          0  HIT %:       -nan  MISS %:       -nan   MPKI: 0
DTLB RFO       ACCESS:          0  HIT:          0  MISS:          0  HIT %:       -nan  MISS %:       -nan   MPKI: 0
DTLB PREFETCH  ACCESS:          0  HIT:          0  MISS:          0  HIT %:       -nan  MISS %:       -nan   MPKI: 0
DTLB WRITEBACK ACCESS:          0  HIT:          0  MISS:          0  HIT %:       -nan  MISS %:       -nan   MPKI: 0
STLB TOTAL     ACCESS:   12973645  HIT:   11295458  MISS:    1678187  HIT %:    87.0646  MISS %:    12.9354   MPKI: 8.39093
STLB LOAD      ACCESS:          0  HIT:          0  MISS:          0  HIT %:       -nan  MISS %:       -nan   MPKI: 0
STLB RFO       ACCESS:          0  HIT:          0  MISS:          0  HIT %:       -nan  MISS %:       -nan   MPKI: 0
STLB PREFETCH  ACCESS:          0  HIT:          0  MISS:          0  HIT %:       -nan  MISS %:       -nan   MPKI: 0
STLB WRITEBACK ACCESS:          0  HIT:          0  MISS:          0  HIT %:       -nan  MISS %:       -nan   MPKI: 0
L1D TOTAL     ACCESS:   45200603  HIT:   42218074  MISS:    2982529  HIT %:    93.4016  MISS %:    6.59843   MPKI: 14.9126
L1D LOAD      ACCESS:   23209310  HIT:   21663176  MISS:    1546134  HIT %:    93.3383  MISS %:     6.6617   MPKI: 7.73067
L1D RFO       ACCESS:    5627943  HIT:    5392156  MISS:     235787  HIT %:    95.8104  MISS %:    4.18958   MPKI: 1.17893
L1D PREFETCH  ACCESS:   16363350  HIT:   15162742  MISS:    1200608  HIT %:    92.6628  MISS %:    7.33718   MPKI: 6.00304
L1D WRITEBACK ACCESS:          0  HIT:          0  MISS:          0  HIT %:       -nan  MISS %:       -nan   MPKI: 0
L1I TOTAL     ACCESS:   41719428  HIT:   41715116  MISS:       4312  HIT %:    99.9897  MISS %:  0.0103357   MPKI: 0.02156
L1I LOAD      ACCESS:   41719428  HIT:   41715116  MISS:       4312  HIT %:    99.9897  MISS %:  0.0103357   MPKI: 0.02156
L1I RFO       ACCESS:          0  HIT:          0  MISS:          0  HIT %:       -nan  MISS %:       -nan   MPKI: 0
L1I PREFETCH  ACCESS:          0  HIT:          0  MISS:          0  HIT %:       -nan  MISS %:       -nan   MPKI: 0
L1I WRITEBACK ACCESS:          0  HIT:          0  MISS:          0  HIT %:       -nan  MISS %:       -nan   MPKI: 0
L2C TOTAL     ACCESS:    8619004  HIT:    5684627  MISS:    2934377  HIT %:    65.9546  MISS %:    34.0454   MPKI: 14.6719
L2C LOAD      ACCESS:    1498730  HIT:     646090  MISS:     852640  HIT %:    43.1092  MISS %:    56.8908   MPKI: 4.2632
L2C RFO       ACCESS:     235781  HIT:       3372  MISS:     232409  HIT %:    1.43014  MISS %:    98.5699   MPKI: 1.16204
L2C PREFETCH  ACCESS:    4366893  HIT:    2561522  MISS:    1805371  HIT %:    58.6578  MISS %:    41.3422   MPKI: 9.02685
L2C WRITEBACK ACCESS:     794160  HIT:     771239  MISS:      22921  HIT %:    97.1138  MISS %:    2.88619   MPKI: 0.114605
PSCL5 TOTAL     ACCESS:    1718886  HIT:    1718886  MISS:          0  HIT %:        100  MISS %:          0   MPKI: 0
PSCL5 LOAD      ACCESS:          0  HIT:          0  MISS:          0  HIT %:       -nan  MISS %:       -nan   MPKI: 0
PSCL5 RFO       ACCESS:          0  HIT:          0  MISS:          0  HIT %:       -nan  MISS %:       -nan   MPKI: 0
PSCL5 PREFETCH  ACCESS:          0  HIT:          0  MISS:          0  HIT %:       -nan  MISS %:       -nan   MPKI: 0
PSCL5 WRITEBACK ACCESS:          0  HIT:          0  MISS:          0  HIT %:       -nan  MISS %:       -nan   MPKI: 0
PSCL4 TOTAL     ACCESS:    1718886  HIT:    1718886  MISS:          0  HIT %:        100  MISS %:          0   MPKI: 0
PSCL4 LOAD      ACCESS:          0  HIT:          0  MISS:          0  HIT %:       -nan  MISS %:       -nan   MPKI: 0
PSCL4 RFO       ACCESS:          0  HIT:          0  MISS:          0  HIT %:       -nan  MISS %:       -nan   MPKI: 0
PSCL4 PREFETCH  ACCESS:          0  HIT:          0  MISS:          0  HIT %:       -nan  MISS %:       -nan   MPKI: 0
PSCL4 WRITEBACK ACCESS:          0  HIT:          0  MISS:          0  HIT %:       -nan  MISS %:       -nan   MPKI: 0
PSCL3 TOTAL     ACCESS:    1718868  HIT:    1718848  MISS:         20  HIT %:    99.9988  MISS %: 0.00116356   MPKI: 0.0001
PSCL3 LOAD      ACCESS:          0  HIT:          0  MISS:          0  HIT %:       -nan  MISS %:       -nan   MPKI: 0
PSCL3 RFO       ACCESS:          0  HIT:          0  MISS:          0  HIT %:       -nan  MISS %:       -nan   MPKI: 0
PSCL3 PREFETCH  ACCESS:          0  HIT:          0  MISS:          0  HIT %:       -nan  MISS %:       -nan   MPKI: 0
PSCL3 WRITEBACK ACCESS:          0  HIT:          0  MISS:          0  HIT %:       -nan  MISS %:       -nan   MPKI: 0
PSCL2 TOTAL     ACCESS:    1717910  HIT:    1714278  MISS:       3632  HIT %:    99.7886  MISS %:    0.21142   MPKI: 0.01816
PSCL2 LOAD      ACCESS:          0  HIT:          0  MISS:          0  HIT %:       -nan  MISS %:       -nan   MPKI: 0
PSCL2 RFO       ACCESS:          0  HIT:          0  MISS:          0  HIT %:       -nan  MISS %:       -nan   MPKI: 0
PSCL2 PREFETCH  ACCESS:          0  HIT:          0  MISS:          0  HIT %:       -nan  MISS %:       -nan   MPKI: 0
PSCL2 WRITEBACK ACCESS:          0  HIT:          0  MISS:          0  HIT %:       -nan  MISS %:       -nan   MPKI: 0
LLC TOTAL     ACCESS:    3702452  HIT:    1152064  MISS:    2550388  HIT %:    31.1162  MISS %:    68.8838   MPKI: 12.7519
LLC LOAD      ACCESS:     751498  HIT:     302253  MISS:     449245  HIT %:    40.2201  MISS %:    59.7799   MPKI: 2.24622
LLC RFO       ACCESS:     232356  HIT:      13599  MISS:     218757  HIT %:    5.85266  MISS %:    94.1473   MPKI: 1.09378
LLC PREFETCH  ACCESS:    1906566  HIT:     281798  MISS:    1624768  HIT %:    14.7804  MISS %:    85.2196   MPKI: 8.12384
LLC WRITEBACK ACCESS:     790996  HIT:     540011  MISS:     250985  HIT %:    68.2698  MISS %:    31.7302   MPKI: 1.25492

RAW hits: 2342401
Loads Generated: 38721488
Loads sent to L1D: 36379085
Stores Generated: 6144680
Stores sent to L1D: 6144680

CPU 1 cumulative IPC: 1.67995 instructions: 393250918 cycles: 234084449
ITLB TOTAL     ACCESS:   67763753  HIT:   67756512  MISS:       7241  HIT %:    99.9893  MISS %:  0.0106857   MPKI: 0.0184132
ITLB LOAD      ACCESS:          0  HIT:          0  MISS:          0  HIT %:       -nan  MISS %:       -nan   MPKI: 0
ITLB RFO       ACCESS:          0  HIT:          0  MISS:          0  HIT %:       -nan  MISS %:       -nan   MPKI: 0
ITLB PREFETCH  ACCESS:          0  HIT:          0  MISS:          0  HIT %:       -nan  MISS %:       -nan   MPKI: 0
ITLB WRITEBACK ACCESS:          0  HIT:          0  MISS:          0  HIT %:       -nan  MISS %:       -nan   MPKI: 0
DTLB TOTAL     ACCESS:   47046037  HIT:   17859804  MISS:   29186233  HIT %:    37.9624  MISS %:    62.0376   MPKI: 74.2178
DTLB LOAD      ACCESS:          0  HIT:          0  MISS:          0  HIT %:       -nan  MISS %:       -nan   MPKI: 0
DTLB RFO       ACCESS:          0  HIT:          0  MISS:          0  HIT %:       -nan  MISS %:       -nan   MPKI: 0
DTLB PREFETCH  ACCESS:          0  HIT:          0  MISS:          0  HIT %:       -nan  MISS %:       -nan   MPKI: 0
DTLB WRITEBACK ACCESS:          0  HIT:          0  MISS:          0  HIT %:       -nan  MISS %:       -nan   MPKI: 0
STLB TOTAL     ACCESS:   29193474  HIT:   29180130  MISS:      13344  HIT %:    99.9543  MISS %:  0.0457088   MPKI: 0.0339325
STLB LOAD      ACCESS:          0  HIT:          0  MISS:          0  HIT %:       -nan  MISS %:       -nan   MPKI: 0
STLB RFO       ACCESS:          0  HIT:          0  MISS:          0  HIT %:       -nan  MISS %:       -nan   MPKI: 0
STLB PREFETCH  ACCESS:          0  HIT:          0  MISS:          0  HIT %:       -nan  MISS %:       -nan   MPKI: 0
STLB WRITEBACK ACCESS:          0  HIT:          0  MISS:          0  HIT %:       -nan  MISS %:       -nan   MPKI: 0
L1D TOTAL     ACCESS:   60670079  HIT:   60666358  MISS:       3721  HIT %:    99.9939  MISS %: 0.00613317   MPKI: 0.00946215
L1D LOAD      ACCESS:   56675246  HIT:   56672140  MISS:       3106  HIT %:    99.9945  MISS %: 0.00548035   MPKI: 0.00789827
L1D RFO       ACCESS:    3994833  HIT:    3994218  MISS:        615  HIT %:    99.9846  MISS %:  0.0153949   MPKI: 0.00156389
L1D PREFETCH  ACCESS:          0  HIT:          0  MISS:          0  HIT %:       -nan  MISS %:       -nan   MPKI: 0
L1D WRITEBACK ACCESS:          0  HIT:          0  MISS:          0  HIT %:       -nan  MISS %:       -nan   MPKI: 0
L1I TOTAL     ACCESS:   78856168  HIT:   78847560  MISS:       8608  HIT %:    99.9891  MISS %:  0.0109161   MPKI: 0.0218893
L1I LOAD      ACCESS:   78856168  HIT:   78847560  MISS:       8608  HIT %:    99.9891  MISS %:  0.0109161   MPKI: 0.0218893
L1I RFO       ACCESS:          0  HIT:          0  MISS:          0  HIT %:       -nan  MISS %:       -nan   MPKI: 0
L1I PREFETCH  ACCESS:          0  HIT:          0  MISS:          0  HIT %:       -nan  MISS %:       -nan   MPKI: 0
L1I WRITEBACK ACCESS:          0  HIT:          0  MISS:          0  HIT %:       -nan  MISS %:       -nan   MPKI: 0
L2C TOTAL     ACCESS:      28243  HIT:      25847  MISS:       2396  HIT %:    91.5165  MISS %:    8.48352   MPKI: 0.0060928
L2C LOAD      ACCESS:      11714  HIT:       9736  MISS:       1978  HIT %:    83.1142  MISS %:    16.8858   MPKI: 0.00502987
L2C RFO       ACCESS:        615  HIT:        479  MISS:        136  HIT %:    77.8862  MISS %:    22.1138   MPKI: 0.000345835
L2C PREFETCH  ACCESS:          0  HIT:          0  MISS:          0  HIT %:       -nan  MISS %:       -nan   MPKI: 0
L2C WRITEBACK ACCESS:       1641  HIT:       1592  MISS:         49  HIT %:     97.014  MISS %:    2.98598   MPKI: 0.000124602
PSCL5 TOTAL     ACCESS:      13344  HIT:      13344  MISS:          0  HIT %:        100  MISS %:          0   MPKI: 0
PSCL5 LOAD      ACCESS:          0  HIT:          0  MISS:          0  HIT %:       -nan  MISS %:       -nan   MPKI: 0
PSCL5 RFO       ACCESS:          0  HIT:          0  MISS:          0  HIT %:       -nan  MISS %:       -nan   MPKI: 0
PSCL5 PREFETCH  ACCESS:          0  HIT:          0  MISS:          0  HIT %:       -nan  MISS %:       -nan   MPKI: 0
PSCL5 WRITEBACK ACCESS:          0  HIT:          0  MISS:          0  HIT %:       -nan  MISS %:       -nan   MPKI: 0
PSCL4 TOTAL     ACCESS:      13344  HIT:      13344  MISS:          0  HIT %:        100  MISS %:          0   MPKI: 0
PSCL4 LOAD      ACCESS:          0  HIT:          0  MISS:          0  HIT %:       -nan  MISS %:       -nan   MPKI: 0
PSCL4 RFO       ACCESS:          0  HIT:          0  MISS:          0  HIT %:       -nan  MISS %:       -nan   MPKI: 0
PSCL4 PREFETCH  ACCESS:          0  HIT:          0  MISS:          0  HIT %:       -nan  MISS %:       -nan   MPKI: 0
PSCL4 WRITEBACK ACCESS:          0  HIT:          0  MISS:          0  HIT %:       -nan  MISS %:       -nan   MPKI: 0
PSCL3 TOTAL     ACCESS:      13344  HIT:      13344  MISS:          0  HIT %:        100  MISS %:          0   MPKI: 0
PSCL3 LOAD      ACCESS:          0  HIT:          0  MISS:          0  HIT %:       -nan  MISS %:       -nan   MPKI: 0
PSCL3 RFO       ACCESS:          0  HIT:          0  MISS:          0  HIT %:       -nan  MISS %:       -nan   MPKI: 0
PSCL3 PREFETCH  ACCESS:          0  HIT:          0  MISS:          0  HIT %:       -nan  MISS %:       -nan   MPKI: 0
PSCL3 WRITEBACK ACCESS:          0  HIT:          0  MISS:          0  HIT %:       -nan  MISS %:       -nan   MPKI: 0
PSCL2 TOTAL     ACCESS:      13344  HIT:      12368  MISS:        976  HIT %:    92.6859  MISS %:    7.31415   MPKI: 0.00248188
PSCL2 LOAD      ACCESS:          0  HIT:          0  MISS:          0  HIT %:       -nan  MISS %:       -nan   MPKI: 0
PSCL2 RFO       ACCESS:          0  HIT:          0  MISS:          0  HIT %:       -nan  MISS %:       -nan   MPKI: 0
PSCL2 PREFETCH  ACCESS:          0  HIT:          0  MISS:          0  HIT %:       -nan  MISS %:       -nan   MPKI: 0
PSCL2 WRITEBACK ACCESS:          0  HIT:          0  MISS:          0  HIT %:       -nan  MISS %:       -nan   MPKI: 0
LLC TOTAL     ACCESS:       2366  HIT:         18  MISS:       2348  HIT %:   0.760778  MISS %:    99.2392   MPKI: 0.00597074
LLC LOAD      ACCESS:       1978  HIT:         15  MISS:       1963  HIT %:   0.758342  MISS %:    99.2417   MPKI: 0.00499172
LLC RFO       ACCESS:        136  HIT:          2  MISS:        134  HIT %:    1.47059  MISS %:    98.5294   MPKI: 0.000340749
LLC PREFETCH  ACCESS:          0  HIT:          0  MISS:          0  HIT %:       -nan  MISS %:       -nan   MPKI: 0
LLC WRITEBACK ACCESS:         19  HIT:          0  MISS:         19  HIT %:          0  MISS %:        100   MPKI: 4.83152e-05

RAW hits: 5397161
Loads Generated: 93467904
Loads sent to L1D: 88070742
Stores Generated: 6463762
Stores sent to L1D: 6463760

CPU 2 cumulative IPC: 1.68677 instructions: 394845913 cycles: 234084449
ITLB TOTAL     ACCESS:   68014521  HIT:   68013961  MISS:        560  HIT %:    99.9992  MISS %: 0.000823354   MPKI: 0.00141827
ITLB LOAD      ACCESS:          0  HIT:          0  MISS:          0  HIT %:       -nan  MISS %:       -nan   MPKI: 0
ITLB RFO       ACCESS:          0  HIT:          0  MISS:          0  HIT %:       -nan  MISS %:       -nan   MPKI: 0
ITLB PREFETCH  ACCESS:          0  HIT:          0  MISS:          0  HIT %:       -nan  MISS %:       -nan   MPKI: 0
ITLB WRITEBACK ACCESS:          0  HIT:          0  MISS:          0  HIT %:       -nan  MISS %:       -nan   MPKI: 0
DTLB TOTAL     ACCESS:   47031808  HIT:   17758122  MISS:   29273686  HIT %:    37.7577  MISS %:    62.2423   MPKI: 74.1395
DTLB LOAD      ACCESS:          0  HIT:          0  MISS:          0  HIT %:       -nan  MISS %:       -nan   MPKI: 0
DTLB RFO       ACCESS:          0  HIT:          0  MISS:          0  HIT %:       -nan  MISS %:       -nan   MPKI: 0
DTLB PREFETCH  ACCESS:          0  HIT:          0  MISS:          0  HIT %:       -nan  MISS %:       -nan   MPKI: 0
DTLB WRITEBACK ACCESS:          0  HIT:          0  MISS:          0  HIT %:       -nan  MISS %:       -nan   MPKI: 0
STLB TOTAL     ACCESS:   29274246  HIT:   29272887  MISS:       1359  HIT %:    99.9954  MISS %: 0.00464231   MPKI: 0.00344185
STLB LOAD      ACCESS:          0  HIT:          0  MISS:          0  HIT %:       -nan  MISS %:       -nan   MPKI: 0
STLB RFO       ACCESS:          0  HIT:          0  MISS:          0  HIT %:       -nan  MISS %:       -nan   MPKI: 0
STLB PREFETCH  ACCESS:          0  HIT:          0  MISS:          0  HIT %:       -nan  MISS %:       -nan   MPKI: 0
STLB WRITEBACK ACCESS:          0  HIT:          0  MISS:          0  HIT %:       -nan  MISS %:       -nan   MPKI: 0
L1D TOTAL     ACCESS:   60732157  HIT:   60732154  MISS:          3  HIT %:        100  MISS %: 4.93972e-06   MPKI: 7.5979e-06
L1D LOAD      ACCESS:   56764020  HIT:   56764020  MISS:          0  HIT %:        100  MISS %:          0   MPKI: 0
L1D RFO       ACCESS:    3968137  HIT:    3968134  MISS:          3  HIT %:    99.9999  MISS %: 7.56022e-05   MPKI: 7.5979e-06
L1D PREFETCH  ACCESS:          0  HIT:          0  MISS:          0  HIT %:       -nan  MISS %:       -nan   MPKI: 0
L1D WRITEBACK ACCESS:          0  HIT:          0  MISS:          0  HIT %:       -nan  MISS %:       -nan   MPKI: 0
L1I TOTAL     ACCESS:   79128000  HIT:   79127994  MISS:          6  HIT %:        100  MISS %: 7.58265e-06   MPKI: 1.51958e-05
L1I LOAD      ACCESS:   79128000  HIT:   79127994  MISS:          6  HIT %:        100  MISS %: 7.58265e-06   MPKI: 1.51958e-05
L1I RFO       ACCESS:          0  HIT:          0  MISS:          0  HIT %:       -nan  MISS %:       -nan   MPKI: 0
L1I PREFETCH  ACCESS:          0  HIT:          0  MISS:          0  HIT %:       -nan  MISS %:       -nan   MPKI: 0
L1I WRITEBACK ACCESS:          0  HIT:          0  MISS:          0  HIT %:       -nan  MISS %:       -nan   MPKI: 0
L2C TOTAL     ACCESS:       1368  HIT:       1358  MISS:         10  HIT %:     99.269  MISS %:   0.730994   MPKI: 2.53263e-05
L2C LOAD      ACCESS:          6  HIT:          0  MISS:          6  HIT %:          0  MISS %:        100   MPKI: 1.51958e-05
L2C RFO       ACCESS:          3  HIT:          0  MISS:          3  HIT %:          0  MISS %:        100   MPKI: 7.5979e-06
L2C PREFETCH  ACCESS:          0  HIT:          0  MISS:          0  HIT %:       -nan  MISS %:       -nan   MPKI: 0
L2C WRITEBACK ACCESS:          0  HIT:          0  MISS:          0  HIT %:       -nan  MISS %:       -nan   MPKI: 0
PSCL5 TOTAL     ACCESS:       1359  HIT:       1359  MISS:          0  HIT %:        100  MISS %:          0   MPKI: 0
PSCL5 LOAD      ACCESS:          0  HIT:          0  MISS:          0  HIT %:       -nan  MISS %:       -nan   MPKI: 0
PSCL5 RFO       ACCESS:          0  HIT:          0  MISS:          0  HIT %:       -nan  MISS %:       -nan   MPKI: 0
PSCL5 PREFETCH  ACCESS:          0  HIT:          0  MISS:          0  HIT %:       -nan  MISS %:       -nan   MPKI: 0
PSCL5 WRITEBACK ACCESS:          0  HIT:          0  MISS:          0  HIT %:       -nan  MISS %:       -nan   MPKI: 0
PSCL4 TOTAL     ACCESS:       1359  HIT:       1359  MISS:          0  HIT %:        100  MISS %:          0   MPKI: 0
PSCL4 LOAD      ACCESS:          0  HIT:          0  MISS:          0  HIT %:       -nan  MISS %:       -nan   MPKI: 0
PSCL4 RFO       ACCESS:          0  HIT:          0  MISS:          0  HIT %:       -nan  MISS %:       -nan   MPKI: 0
PSCL4 PREFETCH  ACCESS:          0  HIT:          0  MISS:          0  HIT %:       -nan  MISS %:       -nan   MPKI: 0
PSCL4 WRITEBACK ACCESS:          0  HIT:          0  MISS:          0  HIT %:       -nan  MISS %:       -nan   MPKI: 0
PSCL3 TOTAL     ACCESS:       1359  HIT:       1359  MISS:          0  HIT %:        100  MISS %:          0   MPKI: 0
PSCL3 LOAD      ACCESS:          0  HIT:          0  MISS:          0  HIT %:       -nan  MISS %:       -nan   MPKI: 0
PSCL3 RFO       ACCESS:          0  HIT:          0  MISS:          0  HIT %:       -nan  MISS %:       -nan   MPKI: 0
PSCL3 PREFETCH  ACCESS:          0  HIT:          0  MISS:          0  HIT %:       -nan  MISS %:       -nan   MPKI: 0
PSCL3 WRITEBACK ACCESS:          0  HIT:          0  MISS:          0  HIT %:       -nan  MISS %:       -nan   MPKI: 0
PSCL2 TOTAL     ACCESS:       1359  HIT:       1359  MISS:          0  HIT %:        100  MISS %:          0   MPKI: 0
PSCL2 LOAD      ACCESS:          0  HIT:          0  MISS:          0  HIT %:       -nan  MISS %:       -nan   MPKI: 0
PSCL2 RFO       ACCESS:          0  HIT:          0  MISS:          0  HIT %:       -nan  MISS %:       -nan   MPKI: 0
PSCL2 PREFETCH  ACCESS:          0  HIT:          0  MISS:          0  HIT %:       -nan  MISS %:       -nan   MPKI: 0
PSCL2 WRITEBACK ACCESS:          0  HIT:          0  MISS:          0  HIT %:       -nan  MISS %:       -nan   MPKI: 0
LLC TOTAL     ACCESS:         10  HIT:          0  MISS:         10  HIT %:          0  MISS %:        100   MPKI: 2.53263e-05
LLC LOAD      ACCESS:          6  HIT:          0  MISS:          6  HIT %:          0  MISS %:        100   MPKI: 1.51958e-05
LLC RFO       ACCESS:          3  HIT:          0  MISS:          3  HIT %:          0  MISS %:        100   MPKI: 7.5979e-06
LLC PREFETCH  ACCESS:          0  HIT:          0  MISS:          0  HIT %:       -nan  MISS %:       -nan   MPKI: 0
LLC WRITEBACK ACCESS:          0  HIT:          0  MISS:          0  HIT %:       -nan  MISS %:       -nan   MPKI: 0

RAW hits: 5423139
Loads Generated: 93856059
Loads sent to L1D: 88432916
Stores Generated: 6474420
Stores sent to L1D: 6474420

CPU 3 cumulative IPC: 1.69902 instructions: 397714222 cycles: 234084449
ITLB TOTAL     ACCESS:   64690563  HIT:   64688955  MISS:       1608  HIT %:    99.9975  MISS %: 0.00248568   MPKI: 0.0040431
ITLB LOAD      ACCESS:          0  HIT:          0  MISS:          0  HIT %:       -nan  MISS %:       -nan   MPKI: 0
ITLB RFO       ACCESS:          0  HIT:          0  MISS:          0  HIT %:       -nan  MISS %:       -nan   MPKI: 0
ITLB PREFETCH  ACCESS:          0  HIT:          0  MISS:          0  HIT %:       -nan  MISS %:       -nan   MPKI: 0
ITLB WRITEBACK ACCESS:          0  HIT:          0  MISS:          0  HIT %:       -nan  MISS %:       -nan   MPKI: 0
DTLB TOTAL     ACCESS:   50816871  HIT:   15914415  MISS:   34902456  HIT %:    31.3172  MISS %:    68.6828   MPKI: 87.7576
DTLB LOAD      ACCESS:          0  HIT:          0  MISS:          0  HIT %:       -nan  MISS %:       -nan   MPKI: 0
DTLB RFO       ACCESS:          0  HIT:          0  MISS:          0  HIT %:       -nan  MISS %:       -nan   MPKI: 0
DTLB PREFETCH  ACCESS:          0  HIT:          0  MISS:          0  HIT %:       -nan  MISS %:       -nan   MPKI: 0
DTLB WRITEBACK ACCESS:          0  HIT:          0  MISS:          0  HIT %:       -nan  MISS %:       -nan   MPKI: 0
STLB TOTAL     ACCESS:   34904063  HIT:   34900702  MISS:       3361  HIT %:    99.9904  MISS %: 0.00962925   MPKI: 0.00845079
STLB LOAD      ACCESS:          0  HIT:          0  MISS:          0  HIT %:       -nan  MISS %:       -nan   MPKI: 0
STLB RFO       ACCESS:          0  HIT:          0  MISS:          0  HIT %:       -nan  MISS %:       -nan   MPKI: 0
STLB PREFETCH  ACCESS:          0  HIT:          0  MISS:          0  HIT %:       -nan  MISS %:       -nan   MPKI: 0
STLB WRITEBACK ACCESS:          0  HIT:          0  MISS:          0  HIT %:       -nan  MISS %:       -nan   MPKI: 0
L1D TOTAL     ACCESS:   65571355  HIT:   65571292  MISS:         63  HIT %:    99.9999  MISS %: 9.60785e-05   MPKI: 0.000158405
L1D LOAD      ACCESS:   62516598  HIT:   62516544  MISS:         54  HIT %:    99.9999  MISS %: 8.63771e-05   MPKI: 0.000135776
L1D RFO       ACCESS:    3054757  HIT:    3054748  MISS:          9  HIT %:    99.9997  MISS %: 0.000294622   MPKI: 2.26293e-05
L1D PREFETCH  ACCESS:          0  HIT:          0  MISS:          0  HIT %:       -nan  MISS %:       -nan   MPKI: 0
L1D WRITEBACK ACCESS:          0  HIT:          0  MISS:          0  HIT %:       -nan  MISS %:       -nan   MPKI: 0
L1I TOTAL     ACCESS:   75434280  HIT:   75434158  MISS:        122  HIT %:    99.9998  MISS %: 0.00016173   MPKI: 0.000306753
L1I LOAD      ACCESS:   75434280  HIT:   75434158  MISS:        122  HIT %:    99.9998  MISS %: 0.00016173   MPKI: 0.000306753
L1I RFO       ACCESS:          0  HIT:          0  MISS:          0  HIT %:       -nan  MISS %:       -nan   MPKI: 0
L1I PREFETCH  ACCESS:          0  HIT:          0  MISS:          0  HIT %:       -nan  MISS %:       -nan   MPKI: 0
L1I WRITEBACK ACCESS:          0  HIT:          0  MISS:          0  HIT %:       -nan  MISS %:       -nan   MPKI: 0
L2C TOTAL     ACCESS:       3550  HIT:       3448  MISS:        102  HIT %:    97.1268  MISS %:    2.87324   MPKI: 0.000256466
L2C LOAD      ACCESS:        176  HIT:         99  MISS:         77  HIT %:      56.25  MISS %:      43.75   MPKI: 0.000193606
L2C RFO       ACCESS:          9  HIT:          0  MISS:          9  HIT %:          0  MISS %:        100   MPKI: 2.26293e-05
L2C PREFETCH  ACCESS:          0  HIT:          0  MISS:          0  HIT %:       -nan  MISS %:       -nan   MPKI: 0
L2C WRITEBACK ACCESS:          0  HIT:          0  MISS:          0  HIT %:       -nan  MISS %:       -nan   MPKI: 0
PSCL5 TOTAL     ACCESS:       3361  HIT:       3361  MISS:          0  HIT %:        100  MISS %:          0   MPKI: 0
PSCL5 LOAD      ACCESS:          0  HIT:          0  MISS:          0  HIT %:       -nan  MISS %:       -nan   MPKI: 0
PSCL5 RFO       ACCESS:          0  HIT:          0  MISS:          0  HIT %:       -nan  MISS %:       -nan   MPKI: 0
PSCL5 PREFETCH  ACCESS:          0  HIT:          0  MISS:          0  HIT %:       -nan  MISS %:       -nan   MPKI: 0
PSCL5 WRITEBACK ACCESS:          0  HIT:          0  MISS:          0  HIT %:       -nan  MISS %:       -nan   MPKI: 0
PSCL4 TOTAL     ACCESS:       3361  HIT:       3361  MISS:          0  HIT %:        100  MISS %:          0   MPKI: 0
PSCL4 LOAD      ACCESS:          0  HIT:          0  MISS:          0  HIT %:       -nan  MISS %:       -nan   MPKI: 0
PSCL4 RFO       ACCESS:          0  HIT:          0  MISS:          0  HIT %:       -nan  MISS %:       -nan   MPKI: 0
PSCL4 PREFETCH  ACCESS:          0  HIT:          0  MISS:          0  HIT %:       -nan  MISS %:       -nan   MPKI: 0
PSCL4 WRITEBACK ACCESS:          0  HIT:          0  MISS:          0  HIT %:       -nan  MISS %:       -nan   MPKI: 0
PSCL3 TOTAL     ACCESS:       3361  HIT:       3361  MISS:          0  HIT %:        100  MISS %:          0   MPKI: 0
PSCL3 LOAD      ACCESS:          0  HIT:          0  MISS:          0  HIT %:       -nan  MISS %:       -nan   MPKI: 0
PSCL3 RFO       ACCESS:          0  HIT:          0  MISS:          0  HIT %:       -nan  MISS %:       -nan   MPKI: 0
PSCL3 PREFETCH  ACCESS:          0  HIT:          0  MISS:          0  HIT %:       -nan  MISS %:       -nan   MPKI: 0
PSCL3 WRITEBACK ACCESS:          0  HIT:          0  MISS:          0  HIT %:       -nan  MISS %:       -nan   MPKI: 0
PSCL2 TOTAL     ACCESS:       3361  HIT:       3350  MISS:         11  HIT %:    99.6727  MISS %:   0.327284   MPKI: 2.76581e-05
PSCL2 LOAD      ACCESS:          0  HIT:          0  MISS:          0  HIT %:       -nan  MISS %:       -nan   MPKI: 0
PSCL2 RFO       ACCESS:          0  HIT:          0  MISS:          0  HIT %:       -nan  MISS %:       -nan   MPKI: 0
PSCL2 PREFETCH  ACCESS:          0  HIT:          0  MISS:          0  HIT %:       -nan  MISS %:       -nan   MPKI: 0
PSCL2 WRITEBACK ACCESS:          0  HIT:          0  MISS:          0  HIT %:       -nan  MISS %:       -nan   MPKI: 0
LLC TOTAL     ACCESS:        102  HIT:          0  MISS:        102  HIT %:          0  MISS %:        100   MPKI: 0.000256466
LLC LOAD      ACCESS:         77  HIT:          0  MISS:         77  HIT %:          0  MISS %:        100   MPKI: 0.000193606
LLC RFO       ACCESS:          9  HIT:          0  MISS:          9  HIT %:          0  MISS %:        100   MPKI: 2.26293e-05
LLC PREFETCH  ACCESS:          0  HIT:          0  MISS:          0  HIT %:       -nan  MISS %:       -nan   MPKI: 0
LLC WRITEBACK ACCESS:          0  HIT:          0  MISS:          0  HIT %:       -nan  MISS %:       -nan   MPKI: 0

RAW hits: 3812122
Loads Generated: 101912070
Loads sent to L1D: 98099948
Stores Generated: 4976401
Stores sent to L1D: 4976400

Region of Interest Statistics

CPU 0 cumulative IPC: 0.854393 instructions: 200000002 cycles: 234084448
ITLB TOTAL     ACCESS:   35567269  HIT:   34922908  MISS:     644361  HIT %:    98.1883  MISS %:    1.81167   MPKI: 3.2218
ITLB LOAD TRANSLATION ACCESS:   35567269  HIT:   34922908  MISS:     644361  HIT %:    98.1883  MISS %:    1.81167   MPKI: 3.2218
ITLB PREFETCH  REQUESTED:          0  ISSUED:          0  USEFUL:          0  USELESS:          0
ITLB USEFUL LOAD PREFETCHES:          0 PREFETCH ISSUED TO LOWER LEVEL:          0  ACCURACY: -nan
ITLB TIMELY PREFETCHES:          0 LATE PREFETCHES: 0 DROPPED PREFETCHES: 0
ITLB PREFETCHES SAME FILL-ORIGIN LEVEL: 0 DIFFERENT FILL-ORIGIN LEVEL: 0
ITLB AVERAGE MISS LATENCY: 23.1048 cycles
ITLB RQ	ACCESS:   41720611	FORWARD:          0	MERGED:    5864097	TO_CACHE:   35856514

DTLB TOTAL     ACCESS:   24618022  HIT:   16832761  MISS:    7785261  HIT %:    68.3758  MISS %:    31.6242   MPKI: 38.9263
DTLB LOAD TRANSLATION ACCESS:   24618022  HIT:   16832761  MISS:    7785261  HIT %:    68.3758  MISS %:    31.6242   MPKI: 38.9263
DTLB PREFETCH  REQUESTED:          0  ISSUED:          0  USEFUL:          0  USELESS:          0
DTLB USEFUL LOAD PREFETCHES:          0 PREFETCH ISSUED TO LOWER LEVEL:          0  ACCURACY: -nan
DTLB TIMELY PREFETCHES:          0 LATE PREFETCHES: 0 DROPPED PREFETCHES: 0
DTLB PREFETCHES SAME FILL-ORIGIN LEVEL: 0 DIFFERENT FILL-ORIGIN LEVEL: 0
DTLB AVERAGE MISS LATENCY: 12.7987 cycles
DTLB RQ	ACCESS:   29294937	FORWARD:          0	MERGED:    3894756	TO_CACHE:   25400181

STLB TOTAL     ACCESS:   12973645  HIT:   11295458  MISS:    1678187  HIT %:    87.0646  MISS %:    12.9354   MPKI: 8.39093
STLB LOAD TRANSLATION ACCESS:    8429622  HIT:    6828259  MISS:    1601363  HIT %:    81.0031  MISS %:    18.9969   MPKI: 8.00681
STLB TRANSLATION FROM L1D PREFETCHER ACCESS:    4544023  HIT:    4467199  MISS:      76824  HIT %:    98.3093  MISS %:    1.69066   MPKI: 0.38412
STLB PREFETCH  REQUESTED:          0  ISSUED:          0  USEFUL:      53747  USELESS:      23077
STLB USEFUL LOAD PREFETCHES:      53747 PREFETCH ISSUED TO LOWER LEVEL:          0  ACCURACY: inf
STLB TIMELY PREFETCHES:      53747 LATE PREFETCHES: 0 DROPPED PREFETCHES: 40699
STLB PREFETCHES SAME FILL-ORIGIN LEVEL: 0 DIFFERENT FILL-ORIGIN LEVEL: 0
STLB AVERAGE MISS LATENCY: 24.0832 cycles
STLB RQ	ACCESS:   30896626	FORWARD:          0	MERGED:   17871635	TO_CACHE:   13024991

STLB Hit, L1D data hit: 0
STLB Hit, L2C data hit: 0
STLB Hit, LLC data hit: 0
STLB Hit, LLC data miss: 0
STLB STLB hints to L2: 0
L1D TOTAL     ACCESS:   45200603  HIT:   42218074  MISS:    2982529  HIT %:    93.4016  MISS %:    6.59843   MPKI: 14.9126
L1D LOAD      ACCESS:   23209310  HIT:   21663176  MISS:    1546134  HIT %:    93.3383  MISS %:     6.6617   MPKI: 7.73067
L1D RFO       ACCESS:    5627943  HIT:    5392156  MISS:     235787  HIT %:    95.8104  MISS %:    4.18958   MPKI: 1.17893
L1D PREFETCH  ACCESS:   16363350  HIT:   15162742  MISS:    1200608  HIT %:    92.6628  MISS %:    7.33718   MPKI: 6.00304
L1D PREFETCH  REQUESTED:   48957215  ISSUED:   48677967  USEFUL:    1125684  USELESS:      74928
L1D USEFUL LOAD PREFETCHES:    1125684 PREFETCH ISSUED TO LOWER LEVEL:    5465787  ACCURACY: 20.5951
L1D TIMELY PREFETCHES:    1125684 LATE PREFETCHES: 51716 DROPPED PREFETCHES: 70024
L1D PREFETCHES SAME FILL-ORIGIN LEVEL: 1252334 DIFFERENT FILL-ORIGIN LEVEL: 4213453
L1D AVERAGE MISS LATENCY: 114.316 cycles
L1D RQ	ACCESS:   36379085	FORWARD:          0	MERGED:   12872932	TO_CACHE:   23437087
L1D WQ	ACCESS:    6144680	FORWARD:      69179	MERGED:     286830	TO_CACHE:    5857850
L1D PQ	ACCESS:   26210963	FORWARD:          0	MERGED:    3743846	TO_CACHE:   22467004

L1D UNIQUE REGIONS ACCESSED: 0
L1D REGIONS CONFLICTS: 0
L1D Cross Page Prefetch Requests: 3337745
L1D Same Page Prefetch Requests: 33971366
L1D ROI Sum of L1D PQ occupancy: 301979769
L1D PREFETCHES PUSHED FROM L2C: 0
L1I TOTAL     ACCESS:   41719428  HIT:   41715116  MISS:       4312  HIT %:    99.9897  MISS %:  0.0103357   MPKI: 0.02156
L1I LOAD      ACCESS:   41719428  HIT:   41715116  MISS:       4312  HIT %:    99.9897  MISS %:  0.0103357   MPKI: 0.02156
L1I PREFETCH  REQUESTED:          0  ISSUED:          0  USEFUL:          0  USELESS:          0
L1I USEFUL LOAD PREFETCHES:          0 PREFETCH ISSUED TO LOWER LEVEL:          0  ACCURACY: -nan
L1I TIMELY PREFETCHES:          0 LATE PREFETCHES: 0 DROPPED PREFETCHES: 0
L1I PREFETCHES SAME FILL-ORIGIN LEVEL: 0 DIFFERENT FILL-ORIGIN LEVEL: 0
L1I AVERAGE MISS LATENCY: 209.654 cycles
L1I RQ	ACCESS:   72856345	FORWARD:          0	MERGED:   31135734	TO_CACHE:   41720611

BTB BRANCH_DIRECT_JUMP	ACCESS:          0  HIT:          0  MISS:          0
BTB BRANCH_INDIRECT	ACCESS:          0  HIT:          0  MISS:          0
BTB BRANCH_CONDITIONAL	ACCESS:          0  HIT:          0  MISS:          0
BTB BRANCH_DIRECT_CALL	ACCESS:          0  HIT:          0  MISS:          0
BTB BRANCH_INDIRECT_CALL	ACCESS:          0  HIT:          0  MISS:          0
BTB BRANCH_RETURN	ACCESS:          0  HIT:          0  MISS:          0
BTB BRANCH_OTHER ACCESS:          0  HIT:          0  MISS:          0

L2C TOTAL     ACCESS:    8619004  HIT:    5684627  MISS:    2934377  HIT %:    65.9546  MISS %:    34.0454   MPKI: 14.6719
L2C LOAD      ACCESS:    1498730  HIT:     646090  MISS:     852640  HIT %:    43.1092  MISS %:    56.8908   MPKI: 4.2632
L2C DATA LOAD MPKI: 4.24164
L2C INSTRUCTION LOAD MPKI: 0.02156
L2C RFO       ACCESS:     235781  HIT:       3372  MISS:     232409  HIT %:    1.43014  MISS %:    98.5699   MPKI: 1.16204
L2C PREFETCH  ACCESS:    4366893  HIT:    2561522  MISS:    1805371  HIT %:    58.6578  MISS %:    41.3422   MPKI: 9.02685
L2C DATA PREFETCH MPKI: 9.02685
L2C INSTRUCTION PREFETCH MPKI: 0
L2C WRITEBACK ACCESS:     794160  HIT:     771239  MISS:      22921  HIT %:    97.1138  MISS %:    2.88619   MPKI: 0.114605
L2C LOAD TRANSLATION ACCESS:    1604982  HIT:    1586836  MISS:      18146  HIT %:    98.8694  MISS %:     1.1306   MPKI: 0.09073
L2C TRANSLATION FROM L1D PREFETCHER ACCESS:     118458  HIT:     115568  MISS:       2890  HIT %:    97.5603  MISS %:    2.43968   MPKI: 0.01445
L2C PREFETCH  REQUESTED:          0  ISSUED:          0  USEFUL:     442585  USELESS:    1362990
L2C USEFUL LOAD PREFETCHES:     442585 PREFETCH ISSUED TO LOWER LEVEL:    1906570  ACCURACY: 23.2137
L2C TIMELY PREFETCHES:     442585 LATE PREFETCHES: 101195 DROPPED PREFETCHES: 0
L2C PREFETCHES SAME FILL-ORIGIN LEVEL: 1078206 DIFFERENT FILL-ORIGIN LEVEL: 0
L2C AVERAGE MISS LATENCY: 159.78 cycles
L2C RQ	ACCESS:    3457953	FORWARD:          0	MERGED:          0	TO_CACHE:    3457951
L2C WQ	ACCESS:     794160	FORWARD:          2	MERGED:          0	TO_CACHE:     794160
L2C PQ	ACCESS:    5463694	FORWARD:          0	MERGED:      16181	TO_CACHE:    5447513

L2C Instructions Evicting Data 4249
L2C Translations Evicting Data 20728
L2C Data Evicting Data 2861362
L2C Instructions Evicting Instructions 40
L2C Translations Evicting Instructions 76
L2C Data Evicting Instructions 4166
L2C Instructions Evicting Translations 23
L2C Translations Evicting Translations 232
L2C Data Evicting Translations 20580
L2C Dense regions hint from L2: 0
PSCL5 TOTAL     ACCESS:    1718886  HIT:    1718886  MISS:          0  HIT %:        100  MISS %:          0   MPKI: 0
PSCL5 LOAD TRANSLATION ACCESS:    1601363  HIT:    1601363  MISS:          0  HIT %:        100  MISS %:          0   MPKI: 0
PSCL5 TRANSLATION FROM L1D PREFETCHER ACCESS:     117523  HIT:     117523  MISS:          0  HIT %:        100  MISS %:          0   MPKI: 0
PSCL5 PREFETCH  REQUESTED:          0  ISSUED:          0  USEFUL:          0  USELESS:          0
PSCL5 USEFUL LOAD PREFETCHES:          0 PREFETCH ISSUED TO LOWER LEVEL:          0  ACCURACY: -nan
PSCL5 TIMELY PREFETCHES:          0 LATE PREFETCHES: 0 DROPPED PREFETCHES: 0
PSCL5 PREFETCHES SAME FILL-ORIGIN LEVEL: 0 DIFFERENT FILL-ORIGIN LEVEL: 0

PSCL4 TOTAL     ACCESS:    1718886  HIT:    1718886  MISS:          0  HIT %:        100  MISS %:          0   MPKI: 0
PSCL4 LOAD TRANSLATION ACCESS:    1601363  HIT:    1601363  MISS:          0  HIT %:        100  MISS %:          0   MPKI: 0
PSCL4 TRANSLATION FROM L1D PREFETCHER ACCESS:     117523  HIT:     117523  MISS:          0  HIT %:        100  MISS %:          0   MPKI: 0
PSCL4 PREFETCH  REQUESTED:          0  ISSUED:          0  USEFUL:          0  USELESS:          0
PSCL4 USEFUL LOAD PREFETCHES:          0 PREFETCH ISSUED TO LOWER LEVEL:          0  ACCURACY: -nan
PSCL4 TIMELY PREFETCHES:          0 LATE PREFETCHES: 0 DROPPED PREFETCHES: 0
PSCL4 PREFETCHES SAME FILL-ORIGIN LEVEL: 0 DIFFERENT FILL-ORIGIN LEVEL: 0

PSCL3 TOTAL     ACCESS:    1718868  HIT:    1718848  MISS:         20  HIT %:    99.9988  MISS %: 0.00116356   MPKI: 0.0001
PSCL3 LOAD TRANSLATION ACCESS:    1601345  HIT:    1601325  MISS:         20  HIT %:    99.9988  MISS %: 0.00124895   MPKI: 0.0001
PSCL3 TRANSLATION FROM L1D PREFETCHER ACCESS:     117523  HIT:     117523  MISS:          0  HIT %:        100  MISS %:          0   MPKI: 0
PSCL3 PREFETCH  REQUESTED:          0  ISSUED:          0  USEFUL:          0  USELESS:          0
PSCL3 USEFUL LOAD PREFETCHES:          0 PREFETCH ISSUED TO LOWER LEVEL:          0  ACCURACY: -nan
PSCL3 TIMELY PREFETCHES:          0 LATE PREFETCHES: 0 DROPPED PREFETCHES: 0
PSCL3 PREFETCHES SAME FILL-ORIGIN LEVEL: 0 DIFFERENT FILL-ORIGIN LEVEL: 0

PSCL2 TOTAL     ACCESS:    1717910  HIT:    1714278  MISS:       3632  HIT %:    99.7886  MISS %:    0.21142   MPKI: 0.01816
PSCL2 LOAD TRANSLATION ACCESS:    1601394  HIT:    1597762  MISS:       3632  HIT %:    99.7732  MISS %:   0.226802   MPKI: 0.01816
PSCL2 TRANSLATION FROM L1D PREFETCHER ACCESS:     116516  HIT:     116516  MISS:          0  HIT %:        100  MISS %:          0   MPKI: 0
PSCL2 PREFETCH  REQUESTED:          0  ISSUED:          0  USEFUL:          0  USELESS:          0
PSCL2 USEFUL LOAD PREFETCHES:          0 PREFETCH ISSUED TO LOWER LEVEL:          0  ACCURACY: -nan
PSCL2 TIMELY PREFETCHES:          0 LATE PREFETCHES: 0 DROPPED PREFETCHES: 0
PSCL2 PREFETCHES SAME FILL-ORIGIN LEVEL: 0 DIFFERENT FILL-ORIGIN LEVEL: 0

LLC TOTAL     ACCESS:    3702452  HIT:    1152064  MISS:    2550388  HIT %:    31.1162  MISS %:    68.8838   MPKI: 12.7519
LLC LOAD      ACCESS:     751498  HIT:     302253  MISS:     449245  HIT %:    40.2201  MISS %:    59.7799   MPKI: 2.24622
LLC RFO       ACCESS:     232356  HIT:      13599  MISS:     218757  HIT %:    5.85266  MISS %:    94.1473   MPKI: 1.09378
LLC PREFETCH  ACCESS:    1906566  HIT:     281798  MISS:    1624768  HIT %:    14.7804  MISS %:    85.2196   MPKI: 8.12384
LLC WRITEBACK ACCESS:     790996  HIT:     540011  MISS:     250985  HIT %:    68.2698  MISS %:    31.7302   MPKI: 1.25492
LLC LOAD TRANSLATION ACCESS:      18146  HIT:      13218  MISS:       4928  HIT %:    72.8425  MISS %:    27.1575   MPKI: 0.02464
LLC TRANSLATION FROM L1D PREFETCHER ACCESS:       2890  HIT:       1185  MISS:       1705  HIT %:    41.0035  MISS %:    58.9965   MPKI: 0.008525
LLC PREFETCH  REQUESTED:          0  ISSUED:          0  USEFUL:      26374  USELESS:    1657913
LLC USEFUL LOAD PREFETCHES:      26374 PREFETCH ISSUED TO LOWER LEVEL:    1624772  ACCURACY: 1.62324
LLC TIMELY PREFETCHES:      26374 LATE PREFETCHES: 0 DROPPED PREFETCHES: 0
LLC PREFETCHES SAME FILL-ORIGIN LEVEL: 0 DIFFERENT FILL-ORIGIN LEVEL: 0
LLC AVERAGE MISS LATENCY: 153.905 cycles
LLC RQ	ACCESS:    1007349	FORWARD:          0	MERGED:          0	TO_CACHE:    1007349
LLC WQ	ACCESS:     791015	FORWARD:          0	MERGED:          0	TO_CACHE:     791015
LLC PQ	ACCESS:    1906570	FORWARD:          0	MERGED:          0	TO_CACHE:    1906570

LLC Dense regions hint to LLC: 0

RAW hits: 2342401
Loads Generated: 38721488
Loads sent to L1D: 36379085
Stores Generated: 6144680
Stores sent to L1D: 6144680
Major fault: 0 Minor fault: 11007
Allocated PAGES: 11848

CPU 1 cumulative IPC: 1.67788 instructions: 200000000 cycles: 119197870
ITLB TOTAL     ACCESS:   34463364  HIT:   34459735  MISS:       3629  HIT %:    99.9895  MISS %:    0.01053   MPKI: 0.018145
ITLB LOAD TRANSLATION ACCESS:   34463364  HIT:   34459735  MISS:       3629  HIT %:    99.9895  MISS %:    0.01053   MPKI: 0.018145
ITLB PREFETCH  REQUESTED:          0  ISSUED:          0  USEFUL:          0  USELESS:          0
ITLB USEFUL LOAD PREFETCHES:          0 PREFETCH ISSUED TO LOWER LEVEL:          0  ACCURACY: -nan
ITLB TIMELY PREFETCHES:          0 LATE PREFETCHES: 0 DROPPED PREFETCHES: 0
ITLB PREFETCHES SAME FILL-ORIGIN LEVEL: 0 DIFFERENT FILL-ORIGIN LEVEL: 0
ITLB AVERAGE MISS LATENCY: 74.0083 cycles
ITLB RQ	ACCESS:   78858681	FORWARD:          0	MERGED:   11092607	TO_CACHE:   67766074

DTLB TOTAL     ACCESS:   23925703  HIT:    9080952  MISS:   14844751  HIT %:    37.9548  MISS %:    62.0452   MPKI: 74.2238
DTLB LOAD TRANSLATION ACCESS:   23925703  HIT:    9080952  MISS:   14844751  HIT %:    37.9548  MISS %:    62.0452   MPKI: 74.2238
DTLB PREFETCH  REQUESTED:          0  ISSUED:          0  USEFUL:          0  USELESS:          0
DTLB USEFUL LOAD PREFETCHES:          0 PREFETCH ISSUED TO LOWER LEVEL:          0  ACCURACY: -nan
DTLB TIMELY PREFETCHES:          0 LATE PREFETCHES: 0 DROPPED PREFETCHES: 0
DTLB PREFETCHES SAME FILL-ORIGIN LEVEL: 0 DIFFERENT FILL-ORIGIN LEVEL: 0
DTLB AVERAGE MISS LATENCY: 17.981 cycles
DTLB RQ	ACCESS:   60671749	FORWARD:          0	MERGED:   11893242	TO_CACHE:   48778507

STLB TOTAL     ACCESS:   14848380  HIT:   14841683  MISS:       6697  HIT %:    99.9549  MISS %:  0.0451026   MPKI: 0.033485
STLB LOAD TRANSLATION ACCESS:   14848380  HIT:   14841683  MISS:       6697  HIT %:    99.9549  MISS %:  0.0451026   MPKI: 0.033485
STLB PREFETCH  REQUESTED:          0  ISSUED:          0  USEFUL:          0  USELESS:          0
STLB USEFUL LOAD PREFETCHES:          0 PREFETCH ISSUED TO LOWER LEVEL:          0  ACCURACY: -nan
STLB TIMELY PREFETCHES:          0 LATE PREFETCHES: 0 DROPPED PREFETCHES: 0
STLB PREFETCHES SAME FILL-ORIGIN LEVEL: 0 DIFFERENT FILL-ORIGIN LEVEL: 0
STLB AVERAGE MISS LATENCY: 76.5307 cycles
STLB RQ	ACCESS:   29193475	FORWARD:          0	MERGED:          0	TO_CACHE:   29193475

STLB Hit, L1D data hit: 0
STLB Hit, L2C data hit: 0
STLB Hit, LLC data hit: 0
STLB Hit, LLC data miss: 0
STLB STLB hints to L2: 0
L1D TOTAL     ACCESS:   30854171  HIT:   30852275  MISS:       1896  HIT %:    99.9939  MISS %: 0.00614504   MPKI: 0.00948
L1D LOAD      ACCESS:   28822862  HIT:   28821280  MISS:       1582  HIT %:    99.9945  MISS %:  0.0054887   MPKI: 0.00791
L1D RFO       ACCESS:    2031309  HIT:    2030995  MISS:        314  HIT %:    99.9845  MISS %:   0.015458   MPKI: 0.00157
L1D PREFETCH  REQUESTED:          0  ISSUED:          0  USEFUL:          0  USELESS:          0
L1D USEFUL LOAD PREFETCHES:          0 PREFETCH ISSUED TO LOWER LEVEL:          0  ACCURACY: -nan
L1D TIMELY PREFETCHES:          0 LATE PREFETCHES: 0 DROPPED PREFETCHES: 0
L1D PREFETCHES SAME FILL-ORIGIN LEVEL: 0 DIFFERENT FILL-ORIGIN LEVEL: 0
L1D AVERAGE MISS LATENCY: 124.43 cycles
L1D RQ	ACCESS:   88070742	FORWARD:          0	MERGED:   31184032	TO_CACHE:   56675416
L1D WQ	ACCESS:    6463760	FORWARD:     211294	MERGED:    2467427	TO_CACHE:    3996333

L1D UNIQUE REGIONS ACCESSED: 0
L1D REGIONS CONFLICTS: 0
L1D Cross Page Prefetch Requests: 0
L1D Same Page Prefetch Requests: 0
L1D ROI Sum of L1D PQ occupancy: 0
L1D PREFETCHES PUSHED FROM L2C: 0
L1I TOTAL     ACCESS:   40104593  HIT:   40100289  MISS:       4304  HIT %:    99.9893  MISS %:  0.0107319   MPKI: 0.02152
L1I LOAD      ACCESS:   40104593  HIT:   40100289  MISS:       4304  HIT %:    99.9893  MISS %:  0.0107319   MPKI: 0.02152
L1I PREFETCH  REQUESTED:          0  ISSUED:          0  USEFUL:          0  USELESS:          0
L1I USEFUL LOAD PREFETCHES:          0 PREFETCH ISSUED TO LOWER LEVEL:          0  ACCURACY: -nan
L1I TIMELY PREFETCHES:          0 LATE PREFETCHES: 0 DROPPED PREFETCHES: 0
L1I PREFETCHES SAME FILL-ORIGIN LEVEL: 0 DIFFERENT FILL-ORIGIN LEVEL: 0
L1I AVERAGE MISS LATENCY: 85.4796 cycles
L1I RQ	ACCESS:  161133851	FORWARD:          0	MERGED:   82275170	TO_CACHE:   78858681

BTB BRANCH_DIRECT_JUMP	ACCESS:          0  HIT:          0  MISS:          0
BTB BRANCH_INDIRECT	ACCESS:          0  HIT:          0  MISS:          0
BTB BRANCH_CONDITIONAL	ACCESS:          0  HIT:          0  MISS:          0
BTB BRANCH_DIRECT_CALL	ACCESS:          0  HIT:          0  MISS:          0
BTB BRANCH_INDIRECT_CALL	ACCESS:          0  HIT:          0  MISS:          0
BTB BRANCH_RETURN	ACCESS:          0  HIT:          0  MISS:          0
BTB BRANCH_OTHER ACCESS:          0  HIT:          0  MISS:          0

L2C TOTAL     ACCESS:      14075  HIT:      11733  MISS:       2342  HIT %:    83.3606  MISS %:    16.6394   MPKI: 0.01171
L2C LOAD      ACCESS:       5886  HIT:       3955  MISS:       1931  HIT %:    67.1933  MISS %:    32.8067   MPKI: 0.009655
L2C DATA LOAD MPKI: 0.00364
L2C INSTRUCTION LOAD MPKI: 0.006015
L2C RFO       ACCESS:        314  HIT:        178  MISS:        136  HIT %:    56.6879  MISS %:    43.3121   MPKI: 0.00068
L2C WRITEBACK ACCESS:        727  HIT:        682  MISS:         45  HIT %:    93.8102  MISS %:    6.18982   MPKI: 0.000225
L2C LOAD TRANSLATION ACCESS:       7148  HIT:       6918  MISS:        230  HIT %:    96.7823  MISS %:    3.21768   MPKI: 0.00115
L2C PREFETCH  REQUESTED:          0  ISSUED:          0  USEFUL:          0  USELESS:          0
L2C USEFUL LOAD PREFETCHES:          0 PREFETCH ISSUED TO LOWER LEVEL:          0  ACCURACY: -nan
L2C TIMELY PREFETCHES:          0 LATE PREFETCHES: 0 DROPPED PREFETCHES: 0
L2C PREFETCHES SAME FILL-ORIGIN LEVEL: 0 DIFFERENT FILL-ORIGIN LEVEL: 0
L2C AVERAGE MISS LATENCY: 211.737 cycles
L2C RQ	ACCESS:      26602	FORWARD:          0	MERGED:          0	TO_CACHE:      26602
L2C WQ	ACCESS:       1641	FORWARD:          0	MERGED:          0	TO_CACHE:       1641

L2C Instructions Evicting Data 101
L2C Translations Evicting Data 21
L2C Data Evicting Data 72
L2C Instructions Evicting Instructions 165
L2C Translations Evicting Instructions 30
L2C Data Evicting Instructions 105
L2C Instructions Evicting Translations 21
L2C Translations Evicting Translations 2
L2C Data Evicting Translations 16
L2C Dense regions hint from L2: 0
PSCL5 TOTAL     ACCESS:       6697  HIT:       6697  MISS:          0  HIT %:        100  MISS %:          0   MPKI: 0
PSCL5 LOAD TRANSLATION ACCESS:       6697  HIT:       6697  MISS:          0  HIT %:        100  MISS %:          0   MPKI: 0
PSCL5 PREFETCH  REQUESTED:          0  ISSUED:          0  USEFUL:          0  USELESS:          0
PSCL5 USEFUL LOAD PREFETCHES:          0 PREFETCH ISSUED TO LOWER LEVEL:          0  ACCURACY: -nan
PSCL5 TIMELY PREFETCHES:          0 LATE PREFETCHES: 0 DROPPED PREFETCHES: 0
PSCL5 PREFETCHES SAME FILL-ORIGIN LEVEL: 0 DIFFERENT FILL-ORIGIN LEVEL: 0

PSCL4 TOTAL     ACCESS:       6697  HIT:       6697  MISS:          0  HIT %:        100  MISS %:          0   MPKI: 0
PSCL4 LOAD TRANSLATION ACCESS:       6697  HIT:       6697  MISS:          0  HIT %:        100  MISS %:          0   MPKI: 0
PSCL4 PREFETCH  REQUESTED:          0  ISSUED:          0  USEFUL:          0  USELESS:          0
PSCL4 USEFUL LOAD PREFETCHES:          0 PREFETCH ISSUED TO LOWER LEVEL:          0  ACCURACY: -nan
PSCL4 TIMELY PREFETCHES:          0 LATE PREFETCHES: 0 DROPPED PREFETCHES: 0
PSCL4 PREFETCHES SAME FILL-ORIGIN LEVEL: 0 DIFFERENT FILL-ORIGIN LEVEL: 0

PSCL3 TOTAL     ACCESS:       6697  HIT:       6697  MISS:          0  HIT %:        100  MISS %:          0   MPKI: 0
PSCL3 LOAD TRANSLATION ACCESS:       6697  HIT:       6697  MISS:          0  HIT %:        100  MISS %:          0   MPKI: 0
PSCL3 PREFETCH  REQUESTED:          0  ISSUED:          0  USEFUL:          0  USELESS:          0
PSCL3 USEFUL LOAD PREFETCHES:          0 PREFETCH ISSUED TO LOWER LEVEL:          0  ACCURACY: -nan
PSCL3 TIMELY PREFETCHES:          0 LATE PREFETCHES: 0 DROPPED PREFETCHES: 0
PSCL3 PREFETCHES SAME FILL-ORIGIN LEVEL: 0 DIFFERENT FILL-ORIGIN LEVEL: 0

PSCL2 TOTAL     ACCESS:       6697  HIT:       6199  MISS:        498  HIT %:    92.5638  MISS %:    7.43617   MPKI: 0.00249
PSCL2 LOAD TRANSLATION ACCESS:       6697  HIT:       6199  MISS:        498  HIT %:    92.5638  MISS %:    7.43617   MPKI: 0.00249
PSCL2 PREFETCH  REQUESTED:          0  ISSUED:          0  USEFUL:          0  USELESS:          0
PSCL2 USEFUL LOAD PREFETCHES:          0 PREFETCH ISSUED TO LOWER LEVEL:          0  ACCURACY: -nan
PSCL2 TIMELY PREFETCHES:          0 LATE PREFETCHES: 0 DROPPED PREFETCHES: 0
PSCL2 PREFETCHES SAME FILL-ORIGIN LEVEL: 0 DIFFERENT FILL-ORIGIN LEVEL: 0

LLC TOTAL     ACCESS:       2314  HIT:         17  MISS:       2297  HIT %:   0.734659  MISS %:    99.2653   MPKI: 0.011485
LLC LOAD      ACCESS:       1931  HIT:         14  MISS:       1917  HIT %:   0.725013  MISS %:     99.275   MPKI: 0.009585
LLC RFO       ACCESS:        136  HIT:          2  MISS:        134  HIT %:    1.47059  MISS %:    98.5294   MPKI: 0.00067
LLC WRITEBACK ACCESS:         17  HIT:          0  MISS:         17  HIT %:          0  MISS %:        100   MPKI: 8.5e-05
LLC LOAD TRANSLATION ACCESS:        230  HIT:          1  MISS:        229  HIT %:   0.434783  MISS %:    99.5652   MPKI: 0.001145
LLC PREFETCH  REQUESTED:          0  ISSUED:          0  USEFUL:      26374  USELESS:    1657913
LLC USEFUL LOAD PREFETCHES:      26374 PREFETCH ISSUED TO LOWER LEVEL:    1624772  ACCURACY: 1.62324
LLC TIMELY PREFETCHES:      26374 LATE PREFETCHES: 0 DROPPED PREFETCHES: 0
LLC PREFETCHES SAME FILL-ORIGIN LEVEL: 0 DIFFERENT FILL-ORIGIN LEVEL: 0
LLC AVERAGE MISS LATENCY: 170882 cycles
LLC RQ	ACCESS:    1007349	FORWARD:          0	MERGED:          0	TO_CACHE:    1007349
LLC WQ	ACCESS:     791015	FORWARD:          0	MERGED:          0	TO_CACHE:     791015
LLC PQ	ACCESS:    1906570	FORWARD:          0	MERGED:          0	TO_CACHE:    1906570

LLC Dense regions hint to LLC: 0

RAW hits: 2744817
Loads Generated: 47536098
Loads sent to L1D: 44791281
Stores Generated: 3287202
Stores sent to L1D: 3287200
Major fault: 0 Minor fault: 631
Allocated PAGES: 11848

CPU 2 cumulative IPC: 1.68668 instructions: 200000000 cycles: 118575841
ITLB TOTAL     ACCESS:   34451592  HIT:   34451312  MISS:        280  HIT %:    99.9992  MISS %: 0.000812735   MPKI: 0.0014
ITLB LOAD TRANSLATION ACCESS:   34451592  HIT:   34451312  MISS:        280  HIT %:    99.9992  MISS %: 0.000812735   MPKI: 0.0014
ITLB PREFETCH  REQUESTED:          0  ISSUED:          0  USEFUL:          0  USELESS:          0
ITLB USEFUL LOAD PREFETCHES:          0 PREFETCH ISSUED TO LOWER LEVEL:          0  ACCURACY: -nan
ITLB TIMELY PREFETCHES:          0 LATE PREFETCHES: 0 DROPPED PREFETCHES: 0
ITLB PREFETCHES SAME FILL-ORIGIN LEVEL: 0 DIFFERENT FILL-ORIGIN LEVEL: 0
ITLB AVERAGE MISS LATENCY: 64.6964 cycles
ITLB RQ	ACCESS:   79128000	FORWARD:          0	MERGED:   11113162	TO_CACHE:   68014838

DTLB TOTAL     ACCESS:   23822622  HIT:    8996041  MISS:   14826581  HIT %:    37.7626  MISS %:    62.2374   MPKI: 74.1329
DTLB LOAD TRANSLATION ACCESS:   23822622  HIT:    8996041  MISS:   14826581  HIT %:    37.7626  MISS %:    62.2374   MPKI: 74.1329
DTLB PREFETCH  REQUESTED:          0  ISSUED:          0  USEFUL:          0  USELESS:          0
DTLB USEFUL LOAD PREFETCHES:          0 PREFETCH ISSUED TO LOWER LEVEL:          0  ACCURACY: -nan
DTLB TIMELY PREFETCHES:          0 LATE PREFETCHES: 0 DROPPED PREFETCHES: 0
DTLB PREFETCHES SAME FILL-ORIGIN LEVEL: 0 DIFFERENT FILL-ORIGIN LEVEL: 0
DTLB AVERAGE MISS LATENCY: 18.0368 cycles
DTLB RQ	ACCESS:   60732177	FORWARD:          0	MERGED:   11965642	TO_CACHE:   48766535

STLB TOTAL     ACCESS:   14826861  HIT:   14826180  MISS:        681  HIT %:    99.9954  MISS %: 0.00459302   MPKI: 0.003405
STLB LOAD TRANSLATION ACCESS:   14826861  HIT:   14826180  MISS:        681  HIT %:    99.9954  MISS %: 0.00459302   MPKI: 0.003405
STLB PREFETCH  REQUESTED:          0  ISSUED:          0  USEFUL:          0  USELESS:          0
STLB USEFUL LOAD PREFETCHES:          0 PREFETCH ISSUED TO LOWER LEVEL:          0  ACCURACY: -nan
STLB TIMELY PREFETCHES:          0 LATE PREFETCHES: 0 DROPPED PREFETCHES: 0
STLB PREFETCHES SAME FILL-ORIGIN LEVEL: 0 DIFFERENT FILL-ORIGIN LEVEL: 0
STLB AVERAGE MISS LATENCY: 51.837 cycles
STLB RQ	ACCESS:   29274248	FORWARD:          0	MERGED:          0	TO_CACHE:   29274248

STLB Hit, L1D data hit: 0
STLB Hit, L2C data hit: 0
STLB Hit, LLC data hit: 0
STLB Hit, LLC data miss: 0
STLB STLB hints to L2: 0
L1D TOTAL     ACCESS:   30762553  HIT:   30762550  MISS:          3  HIT %:        100  MISS %: 9.75212e-06   MPKI: 1.5e-05
L1D LOAD      ACCESS:   28752574  HIT:   28752574  MISS:          0  HIT %:        100  MISS %:          0   MPKI: 0
L1D RFO       ACCESS:    2009979  HIT:    2009976  MISS:          3  HIT %:    99.9999  MISS %: 0.000149255   MPKI: 1.5e-05
L1D PREFETCH  REQUESTED:          0  ISSUED:          0  USEFUL:          0  USELESS:          0
L1D USEFUL LOAD PREFETCHES:          0 PREFETCH ISSUED TO LOWER LEVEL:          0  ACCURACY: -nan
L1D TIMELY PREFETCHES:          0 LATE PREFETCHES: 0 DROPPED PREFETCHES: 0
L1D PREFETCHES SAME FILL-ORIGIN LEVEL: 0 DIFFERENT FILL-ORIGIN LEVEL: 0
L1D AVERAGE MISS LATENCY: 476 cycles
L1D RQ	ACCESS:   88432916	FORWARD:          0	MERGED:   31442320	TO_CACHE:   56764023
L1D WQ	ACCESS:    6474420	FORWARD:     226573	MERGED:    2506266	TO_CACHE:    3968154

L1D UNIQUE REGIONS ACCESSED: 0
L1D REGIONS CONFLICTS: 0
L1D Cross Page Prefetch Requests: 0
L1D Same Page Prefetch Requests: 0
L1D ROI Sum of L1D PQ occupancy: 0
L1D PREFETCHES PUSHED FROM L2C: 0
L1I TOTAL     ACCESS:   40080941  HIT:   40080935  MISS:          6  HIT %:        100  MISS %: 1.49697e-05   MPKI: 3e-05
L1I LOAD      ACCESS:   40080941  HIT:   40080935  MISS:          6  HIT %:        100  MISS %: 1.49697e-05   MPKI: 3e-05
L1I PREFETCH  REQUESTED:          0  ISSUED:          0  USEFUL:          0  USELESS:          0
L1I USEFUL LOAD PREFETCHES:          0 PREFETCH ISSUED TO LOWER LEVEL:          0  ACCURACY: -nan
L1I TIMELY PREFETCHES:          0 LATE PREFETCHES: 0 DROPPED PREFETCHES: 0
L1I PREFETCHES SAME FILL-ORIGIN LEVEL: 0 DIFFERENT FILL-ORIGIN LEVEL: 0
L1I AVERAGE MISS LATENCY: 222.333 cycles
L1I RQ	ACCESS:  161714901	FORWARD:          0	MERGED:   82586901	TO_CACHE:   79128000

BTB BRANCH_DIRECT_JUMP	ACCESS:          0  HIT:          0  MISS:          0
BTB BRANCH_INDIRECT	ACCESS:          0  HIT:          0  MISS:          0
BTB BRANCH_CONDITIONAL	ACCESS:          0  HIT:          0  MISS:          0
BTB BRANCH_DIRECT_CALL	ACCESS:          0  HIT:          0  MISS:          0
BTB BRANCH_INDIRECT_CALL	ACCESS:          0  HIT:          0  MISS:          0
BTB BRANCH_RETURN	ACCESS:          0  HIT:          0  MISS:          0
BTB BRANCH_OTHER ACCESS:          0  HIT:          0  MISS:          0

L2C TOTAL     ACCESS:        690  HIT:        680  MISS:         10  HIT %:    98.5507  MISS %:    1.44928   MPKI: 5e-05
L2C LOAD      ACCESS:          6  HIT:          0  MISS:          6  HIT %:          0  MISS %:        100   MPKI: 3e-05
L2C DATA LOAD MPKI: 0
L2C INSTRUCTION LOAD MPKI: 3e-05
L2C RFO       ACCESS:          3  HIT:          0  MISS:          3  HIT %:          0  MISS %:        100   MPKI: 1.5e-05
L2C LOAD TRANSLATION ACCESS:        681  HIT:        680  MISS:          1  HIT %:    99.8532  MISS %:   0.146843   MPKI: 5e-06
L2C PREFETCH  REQUESTED:          0  ISSUED:          0  USEFUL:          0  USELESS:          0
L2C USEFUL LOAD PREFETCHES:          0 PREFETCH ISSUED TO LOWER LEVEL:          0  ACCURACY: -nan
L2C TIMELY PREFETCHES:          0 LATE PREFETCHES: 0 DROPPED PREFETCHES: 0
L2C PREFETCHES SAME FILL-ORIGIN LEVEL: 0 DIFFERENT FILL-ORIGIN LEVEL: 0
L2C AVERAGE MISS LATENCY: 285 cycles
L2C RQ	ACCESS:       1368	FORWARD:          0	MERGED:          0	TO_CACHE:       1368

L2C Instructions Evicting Data 0
L2C Translations Evicting Data 0
L2C Data Evicting Data 0
L2C Instructions Evicting Instructions 0
L2C Translations Evicting Instructions 0
L2C Data Evicting Instructions 0
L2C Instructions Evicting Translations 0
L2C Translations Evicting Translations 0
L2C Data Evicting Translations 0
L2C Dense regions hint from L2: 0
PSCL5 TOTAL     ACCESS:        681  HIT:        681  MISS:          0  HIT %:        100  MISS %:          0   MPKI: 0
PSCL5 LOAD TRANSLATION ACCESS:        681  HIT:        681  MISS:          0  HIT %:        100  MISS %:          0   MPKI: 0
PSCL5 PREFETCH  REQUESTED:          0  ISSUED:          0  USEFUL:          0  USELESS:          0
PSCL5 USEFUL LOAD PREFETCHES:          0 PREFETCH ISSUED TO LOWER LEVEL:          0  ACCURACY: -nan
PSCL5 TIMELY PREFETCHES:          0 LATE PREFETCHES: 0 DROPPED PREFETCHES: 0
PSCL5 PREFETCHES SAME FILL-ORIGIN LEVEL: 0 DIFFERENT FILL-ORIGIN LEVEL: 0

PSCL4 TOTAL     ACCESS:        681  HIT:        681  MISS:          0  HIT %:        100  MISS %:          0   MPKI: 0
PSCL4 LOAD TRANSLATION ACCESS:        681  HIT:        681  MISS:          0  HIT %:        100  MISS %:          0   MPKI: 0
PSCL4 PREFETCH  REQUESTED:          0  ISSUED:          0  USEFUL:          0  USELESS:          0
PSCL4 USEFUL LOAD PREFETCHES:          0 PREFETCH ISSUED TO LOWER LEVEL:          0  ACCURACY: -nan
PSCL4 TIMELY PREFETCHES:          0 LATE PREFETCHES: 0 DROPPED PREFETCHES: 0
PSCL4 PREFETCHES SAME FILL-ORIGIN LEVEL: 0 DIFFERENT FILL-ORIGIN LEVEL: 0

PSCL3 TOTAL     ACCESS:        681  HIT:        681  MISS:          0  HIT %:        100  MISS %:          0   MPKI: 0
PSCL3 LOAD TRANSLATION ACCESS:        681  HIT:        681  MISS:          0  HIT %:        100  MISS %:          0   MPKI: 0
PSCL3 PREFETCH  REQUESTED:          0  ISSUED:          0  USEFUL:          0  USELESS:          0
PSCL3 USEFUL LOAD PREFETCHES:          0 PREFETCH ISSUED TO LOWER LEVEL:          0  ACCURACY: -nan
PSCL3 TIMELY PREFETCHES:          0 LATE PREFETCHES: 0 DROPPED PREFETCHES: 0
PSCL3 PREFETCHES SAME FILL-ORIGIN LEVEL: 0 DIFFERENT FILL-ORIGIN LEVEL: 0

PSCL2 TOTAL     ACCESS:        681  HIT:        681  MISS:          0  HIT %:        100  MISS %:          0   MPKI: 0
PSCL2 LOAD TRANSLATION ACCESS:        681  HIT:        681  MISS:          0  HIT %:        100  MISS %:          0   MPKI: 0
PSCL2 PREFETCH  REQUESTED:          0  ISSUED:          0  USEFUL:          0  USELESS:          0
PSCL2 USEFUL LOAD PREFETCHES:          0 PREFETCH ISSUED TO LOWER LEVEL:          0  ACCURACY: -nan
PSCL2 TIMELY PREFETCHES:          0 LATE PREFETCHES: 0 DROPPED PREFETCHES: 0
PSCL2 PREFETCHES SAME FILL-ORIGIN LEVEL: 0 DIFFERENT FILL-ORIGIN LEVEL: 0

LLC TOTAL     ACCESS:         10  HIT:          0  MISS:         10  HIT %:          0  MISS %:        100   MPKI: 5e-05
LLC LOAD      ACCESS:          6  HIT:          0  MISS:          6  HIT %:          0  MISS %:        100   MPKI: 3e-05
LLC RFO       ACCESS:          3  HIT:          0  MISS:          3  HIT %:          0  MISS %:        100   MPKI: 1.5e-05
LLC LOAD TRANSLATION ACCESS:          1  HIT:          0  MISS:          1  HIT %:          0  MISS %:        100   MPKI: 5e-06
LLC PREFETCH  REQUESTED:          0  ISSUED:          0  USEFUL:      26374  USELESS:    1657913
LLC USEFUL LOAD PREFETCHES:      26374 PREFETCH ISSUED TO LOWER LEVEL:    1624772  ACCURACY: 1.62324
LLC TIMELY PREFETCHES:      26374 LATE PREFETCHES: 0 DROPPED PREFETCHES: 0
LLC PREFETCHES SAME FILL-ORIGIN LEVEL: 0 DIFFERENT FILL-ORIGIN LEVEL: 0
LLC AVERAGE MISS LATENCY: 3.92517e+07 cycles
LLC RQ	ACCESS:    1007349	FORWARD:          0	MERGED:          0	TO_CACHE:    1007349
LLC WQ	ACCESS:     791015	FORWARD:          0	MERGED:          0	TO_CACHE:     791015
LLC PQ	ACCESS:    1906570	FORWARD:          0	MERGED:          0	TO_CACHE:    1906570

LLC Dense regions hint to LLC: 0

RAW hits: 2746969
Loads Generated: 47540612
Loads sent to L1D: 44793641
Stores Generated: 3279457
Stores sent to L1D: 3279456
Major fault: 0 Minor fault: 65
Allocated PAGES: 11848

CPU 3 cumulative IPC: 1.69853 instructions: 200000002 cycles: 117748785
ITLB TOTAL     ACCESS:   32516015  HIT:   32515211  MISS:        804  HIT %:    99.9975  MISS %: 0.00247263   MPKI: 0.00402
ITLB LOAD TRANSLATION ACCESS:   32516015  HIT:   32515211  MISS:        804  HIT %:    99.9975  MISS %: 0.00247263   MPKI: 0.00402
ITLB PREFETCH  REQUESTED:          0  ISSUED:          0  USEFUL:          0  USELESS:          0
ITLB USEFUL LOAD PREFETCHES:          0 PREFETCH ISSUED TO LOWER LEVEL:          0  ACCURACY: -nan
ITLB TIMELY PREFETCHES:          0 LATE PREFETCHES: 0 DROPPED PREFETCHES: 0
ITLB PREFETCHES SAME FILL-ORIGIN LEVEL: 0 DIFFERENT FILL-ORIGIN LEVEL: 0
ITLB AVERAGE MISS LATENCY: 65.7015 cycles
ITLB RQ	ACCESS:   75434322	FORWARD:          0	MERGED:   10743121	TO_CACHE:   64691201

DTLB TOTAL     ACCESS:   25574920  HIT:    8031677  MISS:   17543243  HIT %:    31.4045  MISS %:    68.5955   MPKI: 87.7162
DTLB LOAD TRANSLATION ACCESS:   25574920  HIT:    8031677  MISS:   17543243  HIT %:    31.4045  MISS %:    68.5955   MPKI: 87.7162
DTLB PREFETCH  REQUESTED:          0  ISSUED:          0  USEFUL:          0  USELESS:          0
DTLB USEFUL LOAD PREFETCHES:          0 PREFETCH ISSUED TO LOWER LEVEL:          0  ACCURACY: -nan
DTLB TIMELY PREFETCHES:          0 LATE PREFETCHES: 0 DROPPED PREFETCHES: 0
DTLB PREFETCHES SAME FILL-ORIGIN LEVEL: 0 DIFFERENT FILL-ORIGIN LEVEL: 0
DTLB AVERAGE MISS LATENCY: 18.2567 cycles
DTLB RQ	ACCESS:   65571381	FORWARD:          0	MERGED:   11360005	TO_CACHE:   54211376

STLB TOTAL     ACCESS:   17544046  HIT:   17542362  MISS:       1684  HIT %:    99.9904  MISS %:  0.0095987   MPKI: 0.00842
STLB LOAD TRANSLATION ACCESS:   17544046  HIT:   17542362  MISS:       1684  HIT %:    99.9904  MISS %:  0.0095987   MPKI: 0.00842
STLB PREFETCH  REQUESTED:          0  ISSUED:          0  USEFUL:          0  USELESS:          0
STLB USEFUL LOAD PREFETCHES:          0 PREFETCH ISSUED TO LOWER LEVEL:          0  ACCURACY: -nan
STLB TIMELY PREFETCHES:          0 LATE PREFETCHES: 0 DROPPED PREFETCHES: 0
STLB PREFETCHES SAME FILL-ORIGIN LEVEL: 0 DIFFERENT FILL-ORIGIN LEVEL: 0
STLB AVERAGE MISS LATENCY: 57.7797 cycles
STLB RQ	ACCESS:   34904063	FORWARD:          0	MERGED:          0	TO_CACHE:   34904063

STLB Hit, L1D data hit: 0
STLB Hit, L2C data hit: 0
STLB Hit, LLC data hit: 0
STLB Hit, LLC data miss: 0
STLB STLB hints to L2: 0
L1D TOTAL     ACCESS:   32980606  HIT:   32980543  MISS:         63  HIT %:    99.9998  MISS %: 0.000191021   MPKI: 0.000315
L1D LOAD      ACCESS:   31453151  HIT:   31453097  MISS:         54  HIT %:    99.9998  MISS %: 0.000171684   MPKI: 0.00027
L1D RFO       ACCESS:    1527455  HIT:    1527446  MISS:          9  HIT %:    99.9994  MISS %: 0.000589215   MPKI: 4.5e-05
L1D PREFETCH  REQUESTED:          0  ISSUED:          0  USEFUL:          0  USELESS:          0
L1D USEFUL LOAD PREFETCHES:          0 PREFETCH ISSUED TO LOWER LEVEL:          0  ACCURACY: -nan
L1D TIMELY PREFETCHES:          0 LATE PREFETCHES: 0 DROPPED PREFETCHES: 0
L1D PREFETCHES SAME FILL-ORIGIN LEVEL: 0 DIFFERENT FILL-ORIGIN LEVEL: 0
L1D AVERAGE MISS LATENCY: 211.905 cycles
L1D RQ	ACCESS:   98099948	FORWARD:          0	MERGED:   35363928	TO_CACHE:   62516606
L1D WQ	ACCESS:    4976400	FORWARD:     219414	MERGED:    1921625	TO_CACHE:    3054775

L1D UNIQUE REGIONS ACCESSED: 0
L1D REGIONS CONFLICTS: 0
L1D Cross Page Prefetch Requests: 0
L1D Same Page Prefetch Requests: 0
L1D ROI Sum of L1D PQ occupancy: 0
L1D PREFETCHES PUSHED FROM L2C: 0
L1I TOTAL     ACCESS:   37926654  HIT:   37926584  MISS:         70  HIT %:    99.9998  MISS %: 0.000184567   MPKI: 0.00035
L1I LOAD      ACCESS:   37926654  HIT:   37926584  MISS:         70  HIT %:    99.9998  MISS %: 0.000184567   MPKI: 0.00035
L1I PREFETCH  REQUESTED:          0  ISSUED:          0  USEFUL:          0  USELESS:          0
L1I USEFUL LOAD PREFETCHES:          0 PREFETCH ISSUED TO LOWER LEVEL:          0  ACCURACY: -nan
L1I TIMELY PREFETCHES:          0 LATE PREFETCHES: 0 DROPPED PREFETCHES: 0
L1I PREFETCHES SAME FILL-ORIGIN LEVEL: 0 DIFFERENT FILL-ORIGIN LEVEL: 0
L1I AVERAGE MISS LATENCY: 92.1857 cycles
L1I RQ	ACCESS:  170485921	FORWARD:          0	MERGED:   95051599	TO_CACHE:   75434322

BTB BRANCH_DIRECT_JUMP	ACCESS:          0  HIT:          0  MISS:          0
BTB BRANCH_INDIRECT	ACCESS:          0  HIT:          0  MISS:          0
BTB BRANCH_CONDITIONAL	ACCESS:          0  HIT:          0  MISS:          0
BTB BRANCH_DIRECT_CALL	ACCESS:          0  HIT:          0  MISS:          0
BTB BRANCH_INDIRECT_CALL	ACCESS:          0  HIT:          0  MISS:          0
BTB BRANCH_RETURN	ACCESS:          0  HIT:          0  MISS:          0
BTB BRANCH_OTHER ACCESS:          0  HIT:          0  MISS:          0

L2C TOTAL     ACCESS:       1821  HIT:       1719  MISS:        102  HIT %:    94.3987  MISS %:    5.60132   MPKI: 0.00051
L2C LOAD      ACCESS:        124  HIT:         47  MISS:         77  HIT %:    37.9032  MISS %:    62.0968   MPKI: 0.000385
L2C DATA LOAD MPKI: 0.00027
L2C INSTRUCTION LOAD MPKI: 0.000115
L2C RFO       ACCESS:          9  HIT:          0  MISS:          9  HIT %:          0  MISS %:        100   MPKI: 4.5e-05
L2C LOAD TRANSLATION ACCESS:       1688  HIT:       1672  MISS:         16  HIT %:    99.0521  MISS %:   0.947867   MPKI: 8e-05
L2C PREFETCH  REQUESTED:          0  ISSUED:          0  USEFUL:          0  USELESS:          0
L2C USEFUL LOAD PREFETCHES:          0 PREFETCH ISSUED TO LOWER LEVEL:          0  ACCURACY: -nan
L2C TIMELY PREFETCHES:          0 LATE PREFETCHES: 0 DROPPED PREFETCHES: 0
L2C PREFETCHES SAME FILL-ORIGIN LEVEL: 0 DIFFERENT FILL-ORIGIN LEVEL: 0
L2C AVERAGE MISS LATENCY: 205.618 cycles
L2C RQ	ACCESS:       3550	FORWARD:          0	MERGED:          0	TO_CACHE:       3550

L2C Instructions Evicting Data 0
L2C Translations Evicting Data 0
L2C Data Evicting Data 2
L2C Instructions Evicting Instructions 2
L2C Translations Evicting Instructions 1
L2C Data Evicting Instructions 1
L2C Instructions Evicting Translations 0
L2C Translations Evicting Translations 1
L2C Data Evicting Translations 0
L2C Dense regions hint from L2: 0
PSCL5 TOTAL     ACCESS:       1684  HIT:       1684  MISS:          0  HIT %:        100  MISS %:          0   MPKI: 0
PSCL5 LOAD TRANSLATION ACCESS:       1684  HIT:       1684  MISS:          0  HIT %:        100  MISS %:          0   MPKI: 0
PSCL5 PREFETCH  REQUESTED:          0  ISSUED:          0  USEFUL:          0  USELESS:          0
PSCL5 USEFUL LOAD PREFETCHES:          0 PREFETCH ISSUED TO LOWER LEVEL:          0  ACCURACY: -nan
PSCL5 TIMELY PREFETCHES:          0 LATE PREFETCHES: 0 DROPPED PREFETCHES: 0
PSCL5 PREFETCHES SAME FILL-ORIGIN LEVEL: 0 DIFFERENT FILL-ORIGIN LEVEL: 0

PSCL4 TOTAL     ACCESS:       1684  HIT:       1684  MISS:          0  HIT %:        100  MISS %:          0   MPKI: 0
PSCL4 LOAD TRANSLATION ACCESS:       1684  HIT:       1684  MISS:          0  HIT %:        100  MISS %:          0   MPKI: 0
PSCL4 PREFETCH  REQUESTED:          0  ISSUED:          0  USEFUL:          0  USELESS:          0
PSCL4 USEFUL LOAD PREFETCHES:          0 PREFETCH ISSUED TO LOWER LEVEL:          0  ACCURACY: -nan
PSCL4 TIMELY PREFETCHES:          0 LATE PREFETCHES: 0 DROPPED PREFETCHES: 0
PSCL4 PREFETCHES SAME FILL-ORIGIN LEVEL: 0 DIFFERENT FILL-ORIGIN LEVEL: 0

PSCL3 TOTAL     ACCESS:       1684  HIT:       1684  MISS:          0  HIT %:        100  MISS %:          0   MPKI: 0
PSCL3 LOAD TRANSLATION ACCESS:       1684  HIT:       1684  MISS:          0  HIT %:        100  MISS %:          0   MPKI: 0
PSCL3 PREFETCH  REQUESTED:          0  ISSUED:          0  USEFUL:          0  USELESS:          0
PSCL3 USEFUL LOAD PREFETCHES:          0 PREFETCH ISSUED TO LOWER LEVEL:          0  ACCURACY: -nan
PSCL3 TIMELY PREFETCHES:          0 LATE PREFETCHES: 0 DROPPED PREFETCHES: 0
PSCL3 PREFETCHES SAME FILL-ORIGIN LEVEL: 0 DIFFERENT FILL-ORIGIN LEVEL: 0

PSCL2 TOTAL     ACCESS:       1684  HIT:       1673  MISS:         11  HIT %:    99.3468  MISS %:   0.653207   MPKI: 5.5e-05
PSCL2 LOAD TRANSLATION ACCESS:       1684  HIT:       1673  MISS:         11  HIT %:    99.3468  MISS %:   0.653207   MPKI: 5.5e-05
PSCL2 PREFETCH  REQUESTED:          0  ISSUED:          0  USEFUL:          0  USELESS:          0
PSCL2 USEFUL LOAD PREFETCHES:          0 PREFETCH ISSUED TO LOWER LEVEL:          0  ACCURACY: -nan
PSCL2 TIMELY PREFETCHES:          0 LATE PREFETCHES: 0 DROPPED PREFETCHES: 0
PSCL2 PREFETCHES SAME FILL-ORIGIN LEVEL: 0 DIFFERENT FILL-ORIGIN LEVEL: 0

LLC TOTAL     ACCESS:        102  HIT:          0  MISS:        102  HIT %:          0  MISS %:        100   MPKI: 0.00051
LLC LOAD      ACCESS:         77  HIT:          0  MISS:         77  HIT %:          0  MISS %:        100   MPKI: 0.000385
LLC RFO       ACCESS:          9  HIT:          0  MISS:          9  HIT %:          0  MISS %:        100   MPKI: 4.5e-05
LLC LOAD TRANSLATION ACCESS:         16  HIT:          0  MISS:         16  HIT %:          0  MISS %:        100   MPKI: 8e-05
LLC PREFETCH  REQUESTED:          0  ISSUED:          0  USEFUL:      26374  USELESS:    1657913
LLC USEFUL LOAD PREFETCHES:      26374 PREFETCH ISSUED TO LOWER LEVEL:    1624772  ACCURACY: 1.62324
LLC TIMELY PREFETCHES:      26374 LATE PREFETCHES: 0 DROPPED PREFETCHES: 0
LLC PREFETCHES SAME FILL-ORIGIN LEVEL: 0 DIFFERENT FILL-ORIGIN LEVEL: 0
LLC AVERAGE MISS LATENCY: 3.84821e+06 cycles
LLC RQ	ACCESS:    1007349	FORWARD:          0	MERGED:          0	TO_CACHE:    1007349
LLC WQ	ACCESS:     791015	FORWARD:          0	MERGED:          0	TO_CACHE:     791015
LLC PQ	ACCESS:    1906570	FORWARD:          0	MERGED:          0	TO_CACHE:    1906570

LLC Dense regions hint to LLC: 0

RAW hits: 1912551
Loads Generated: 51248909
Loads sent to L1D: 49336353
Stores Generated: 2502487
Stores sent to L1D: 2502486
Major fault: 0 Minor fault: 145
Allocated PAGES: 11848

DRAM Statistics
 CHANNEL 0
 RQ ROW_BUFFER_HIT:     992711  ROW_BUFFER_MISS:    1309130
 DBUS_CONGESTED:       9508
 WQ ROW_BUFFER_HIT:     191816  ROW_BUFFER_MISS:     476704  FULL:        652

 AVG_CONGESTED_CYCLE: 4
 All warmup complete: 5
Channel 0 Bank busy for read cycles: 0
Channel 0 Bank busy for write cycles: 0
Channel 0
Rank 0
0banks busy for read cycles: 75579295
0banks busy for write cycles: 62246
1banks busy for read cycles: 64781531
1banks busy for write cycles: 12089519
2banks busy for read cycles: 27821277
2banks busy for write cycles: 4828893
3banks busy for read cycles: 9498651
3banks busy for write cycles: 2740161
4banks busy for read cycles: 5070970
4banks busy for write cycles: 1899706
5banks busy for read cycles: 3264047
5banks busy for write cycles: 1560633
6banks busy for read cycles: 2604734
6banks busy for write cycles: 1445718
7banks busy for read cycles: 2560222
7banks busy for write cycles: 2262323
8banks busy for read cycles: 3699431
8banks busy for write cycles: 12315092

CPU 0 Branch Prediction Accuracy: 98.6327% MPKI: 2.69608 Average ROB Occupancy at Mispredict: 102.14
Branch types
NOT_BRANCH: 0 0%
BRANCH_DIRECT_JUMP: 0 0%
BRANCH_INDIRECT: 0 0%
BRANCH_CONDITIONAL: 0 0%
BRANCH_DIRECT_CALL: 0 0%
BRANCH_INDIRECT_CALL: 0 0%
BRANCH_RETURN: 0 0%
BRANCH_OTHER: 0 0%


CPU 1 Branch Prediction Accuracy: 99.9986% MPKI: 0.00360439 Average ROB Occupancy at Mispredict: 26.9514
Branch types
NOT_BRANCH: 0 0%
BRANCH_DIRECT_JUMP: 0 0%
BRANCH_INDIRECT: 0 0%
BRANCH_CONDITIONAL: 0 0%
BRANCH_DIRECT_CALL: 0 0%
BRANCH_INDIRECT_CALL: 0 0%
BRANCH_RETURN: 0 0%
BRANCH_OTHER: 0 0%


CPU 2 Branch Prediction Accuracy: 99.9999% MPKI: 0.000293036 Average ROB Occupancy at Mispredict: 147.586
Branch types
NOT_BRANCH: 0 0%
BRANCH_DIRECT_JUMP: 0 0%
BRANCH_INDIRECT: 0 0%
BRANCH_CONDITIONAL: 0 0%
BRANCH_DIRECT_CALL: 0 0%
BRANCH_INDIRECT_CALL: 0 0%
BRANCH_RETURN: 0 0%
BRANCH_OTHER: 0 0%


CPU 3 Branch Prediction Accuracy: 99.9998% MPKI: 0.000557657 Average ROB Occupancy at Mispredict: 158.87
Branch types
NOT_BRANCH: 0 0%
BRANCH_DIRECT_JUMP: 0 0%
BRANCH_INDIRECT: 0 0%
BRANCH_CONDITIONAL: 0 0%
BRANCH_DIRECT_CALL: 0 0%
BRANCH_INDIRECT_CALL: 0 0%
BRANCH_RETURN: 0 0%
BRANCH_OTHER: 0 0%

DRAM PAGES: 1048576
Allocated PAGES: 11848
