
*** ChampSim Multicore Out-of-Order Simulator ***

Warmup Instructions: 50000000
Simulation Instructions: 200000000
Number of CPUs: 4
LLC sets: 8192
LLC ways: 16
Off-chip DRAM Size: 4096 MB Channels: 1 Width: 64-bit Data Rate: 6400 MT/s
CPU 0 runs ./traces/gap/bfs-10.trace.gz
.gz
CPU 1 runs ./traces/gap/bfs-10.trace.gz
.gz
CPU 2 runs ./traces/gap/bfs-10.trace.gz
.gz
CPU 3 runs ./traces/gap/bfs-10.trace.gz
.gz
BTB has LRU replacement policy
ITLB has LRU replacement policy
DTLB has LRU replacement policy
STLB has LRU replacement policy
L1I has LRU replacement policy
History Sets: 8
History Ways: 16
BERTI Size: 16
BERTI Stride Size: 8
L1D has LRU replacement policy
Initialize SRRIP state for L2C
Initialize DRRIP state for LLC
BTB has LRU replacement policy
ITLB has LRU replacement policy
DTLB has LRU replacement policy
STLB has LRU replacement policy
L1I has LRU replacement policy
History Sets: 8
History Ways: 16
BERTI Size: 16
BERTI Stride Size: 8
L1D has LRU replacement policy
Initialize SRRIP state for L2C
Initialize DRRIP state for LLC
BTB has LRU replacement policy
ITLB has LRU replacement policy
DTLB has LRU replacement policy
STLB has LRU replacement policy
L1I has LRU replacement policy
History Sets: 8
History Ways: 16
BERTI Size: 16
BERTI Stride Size: 8
L1D has LRU replacement policy
Initialize SRRIP state for L2C
Initialize DRRIP state for LLC
BTB has LRU replacement policy
ITLB has LRU replacement policy
DTLB has LRU replacement policy
STLB has LRU replacement policy
L1I has LRU replacement policy
History Sets: 8
History Ways: 16
BERTI Size: 16
BERTI Stride Size: 8
L1D has LRU replacement policy
Initialize SRRIP state for L2C
Initialize DRRIP state for LLC
Heartbeat CPU 0 instructions: 10000000 cycles: 2972805 heartbeat IPC: 3.36383 cumulative IPC: 3.36383 (Simulation time: 0 hr 2 min 5 sec) 
Heartbeat CPU 1 instructions: 10000000 cycles: 2972819 heartbeat IPC: 3.36381 cumulative IPC: 3.36381 (Simulation time: 0 hr 2 min 5 sec) 
Heartbeat CPU 2 instructions: 10000000 cycles: 2972836 heartbeat IPC: 3.36379 cumulative IPC: 3.36379 (Simulation time: 0 hr 2 min 5 sec) 
Heartbeat CPU 3 instructions: 10000000 cycles: 2972858 heartbeat IPC: 3.36377 cumulative IPC: 3.36377 (Simulation time: 0 hr 2 min 5 sec) 
Heartbeat CPU 0 instructions: 20000003 cycles: 5919039 heartbeat IPC: 3.39416 cumulative IPC: 3.37893 (Simulation time: 0 hr 4 min 15 sec) 
Heartbeat CPU 1 instructions: 20000003 cycles: 5919075 heartbeat IPC: 3.39414 cumulative IPC: 3.37891 (Simulation time: 0 hr 4 min 15 sec) 
Heartbeat CPU 2 instructions: 20000003 cycles: 5919104 heartbeat IPC: 3.39413 cumulative IPC: 3.37889 (Simulation time: 0 hr 4 min 15 sec) 
Heartbeat CPU 3 instructions: 20000003 cycles: 5919118 heartbeat IPC: 3.39413 cumulative IPC: 3.37888 (Simulation time: 0 hr 4 min 15 sec) 
Heartbeat CPU 0 instructions: 30000003 cycles: 8851137 heartbeat IPC: 3.41053 cumulative IPC: 3.3894 (Simulation time: 0 hr 6 min 29 sec) 
Heartbeat CPU 1 instructions: 30000003 cycles: 8851173 heartbeat IPC: 3.41053 cumulative IPC: 3.38938 (Simulation time: 0 hr 6 min 29 sec) 
Heartbeat CPU 2 instructions: 30000003 cycles: 8851202 heartbeat IPC: 3.41053 cumulative IPC: 3.38937 (Simulation time: 0 hr 6 min 29 sec) 
Heartbeat CPU 3 instructions: 30000003 cycles: 8851216 heartbeat IPC: 3.41053 cumulative IPC: 3.38937 (Simulation time: 0 hr 6 min 29 sec) 
Heartbeat CPU 0 instructions: 40000002 cycles: 11783626 heartbeat IPC: 3.41007 cumulative IPC: 3.39454 (Simulation time: 0 hr 8 min 37 sec) 
Heartbeat CPU 1 instructions: 40000001 cycles: 11783662 heartbeat IPC: 3.41007 cumulative IPC: 3.39453 (Simulation time: 0 hr 8 min 37 sec) 
Heartbeat CPU 2 instructions: 40000001 cycles: 11783691 heartbeat IPC: 3.41007 cumulative IPC: 3.39452 (Simulation time: 0 hr 8 min 37 sec) 
Heartbeat CPU 3 instructions: 40000002 cycles: 11783705 heartbeat IPC: 3.41007 cumulative IPC: 3.39452 (Simulation time: 0 hr 8 min 37 sec) 
Heartbeat CPU 0 instructions: 50000001 cycles: 14714657 heartbeat IPC: 3.41177 cumulative IPC: 3.39797 (Simulation time: 0 hr 10 min 47 sec) 
Heartbeat CPU 1 instructions: 50000001 cycles: 14714692 heartbeat IPC: 3.41177 cumulative IPC: 3.39796 (Simulation time: 0 hr 10 min 47 sec) 
Heartbeat CPU 2 instructions: 50000003 cycles: 14714723 heartbeat IPC: 3.41177 cumulative IPC: 3.39796 (Simulation time: 0 hr 10 min 47 sec) 
Heartbeat CPU 3 instructions: 50000003 cycles: 14714737 heartbeat IPC: 3.41177 cumulative IPC: 3.39795 (Simulation time: 0 hr 10 min 47 sec) 

Warmup complete CPU 0 instructions: 50000166 cycles: 14714737 (Simulation time: 0 hr 10 min 47 sec) 
Warmup complete CPU 1 instructions: 50000082 cycles: 14714737 (Simulation time: 0 hr 10 min 47 sec) 
Warmup complete CPU 2 instructions: 50000042 cycles: 14714737 (Simulation time: 0 hr 10 min 47 sec) 
Warmup complete CPU 3 instructions: 50000003 cycles: 14714737 (Simulation time: 0 hr 10 min 47 sec) 

Heartbeat CPU 1 instructions: 60000001 cycles: 55237799 heartbeat IPC: 0.246773 cumulative IPC: 0.246771 (Simulation time: 0 hr 15 min 0 sec) 
Heartbeat CPU 0 instructions: 60000001 cycles: 55246605 heartbeat IPC: 0.246719 cumulative IPC: 0.246715 (Simulation time: 0 hr 15 min 0 sec) 
Heartbeat CPU 3 instructions: 60000001 cycles: 55418844 heartbeat IPC: 0.245675 cumulative IPC: 0.245675 (Simulation time: 0 hr 15 min 1 sec) 
Heartbeat CPU 2 instructions: 60000001 cycles: 55477427 heartbeat IPC: 0.245322 cumulative IPC: 0.245321 (Simulation time: 0 hr 15 min 2 sec) 
Heartbeat CPU 3 instructions: 70000003 cycles: 104887510 heartbeat IPC: 0.202148 cumulative IPC: 0.221796 (Simulation time: 0 hr 19 min 34 sec) 
Heartbeat CPU 1 instructions: 70000003 cycles: 104903544 heartbeat IPC: 0.201346 cumulative IPC: 0.221756 (Simulation time: 0 hr 19 min 34 sec) 
Heartbeat CPU 0 instructions: 70000003 cycles: 105200912 heartbeat IPC: 0.200183 cumulative IPC: 0.221026 (Simulation time: 0 hr 19 min 36 sec) 
Heartbeat CPU 2 instructions: 70000003 cycles: 105429932 heartbeat IPC: 0.20019 cumulative IPC: 0.22047 (Simulation time: 0 hr 19 min 38 sec) 
Heartbeat CPU 1 instructions: 80000002 cycles: 131803742 heartbeat IPC: 0.371744 cumulative IPC: 0.256215 (Simulation time: 0 hr 23 min 31 sec) 
Heartbeat CPU 3 instructions: 80000002 cycles: 131810213 heartbeat IPC: 0.371434 cumulative IPC: 0.256201 (Simulation time: 0 hr 23 min 31 sec) 
Heartbeat CPU 0 instructions: 80000002 cycles: 132068421 heartbeat IPC: 0.372197 cumulative IPC: 0.255636 (Simulation time: 0 hr 23 min 33 sec) 
Heartbeat CPU 2 instructions: 80000002 cycles: 132306279 heartbeat IPC: 0.372074 cumulative IPC: 0.25512 (Simulation time: 0 hr 23 min 35 sec) 
Heartbeat CPU 1 instructions: 90000000 cycles: 140241344 heartbeat IPC: 1.18517 cumulative IPC: 0.318657 (Simulation time: 0 hr 26 min 31 sec) 
Heartbeat CPU 3 instructions: 90000000 cycles: 140254310 heartbeat IPC: 1.18426 cumulative IPC: 0.318625 (Simulation time: 0 hr 26 min 31 sec) 
Heartbeat CPU 0 instructions: 90000000 cycles: 140505133 heartbeat IPC: 1.1853 cumulative IPC: 0.317988 (Simulation time: 0 hr 26 min 36 sec) 
Heartbeat CPU 2 instructions: 90000000 cycles: 140728362 heartbeat IPC: 1.18735 cumulative IPC: 0.317426 (Simulation time: 0 hr 26 min 41 sec) 
Heartbeat CPU 3 instructions: 100000000 cycles: 152480003 heartbeat IPC: 0.81795 cumulative IPC: 0.362936 (Simulation time: 0 hr 30 min 16 sec) 
Heartbeat CPU 1 instructions: 100000000 cycles: 153454032 heartbeat IPC: 0.756848 cumulative IPC: 0.360388 (Simulation time: 0 hr 30 min 25 sec) 
Heartbeat CPU 2 instructions: 100000000 cycles: 153500703 heartbeat IPC: 0.782942 cumulative IPC: 0.360267 (Simulation time: 0 hr 30 min 26 sec) 
Heartbeat CPU 0 instructions: 100000000 cycles: 154025966 heartbeat IPC: 0.739599 cumulative IPC: 0.358907 (Simulation time: 0 hr 30 min 32 sec) 
Heartbeat CPU 3 instructions: 110000000 cycles: 179415899 heartbeat IPC: 0.371252 cumulative IPC: 0.364296 (Simulation time: 0 hr 34 min 22 sec) 
Heartbeat CPU 1 instructions: 110000000 cycles: 179415913 heartbeat IPC: 0.38518 cumulative IPC: 0.364296 (Simulation time: 0 hr 34 min 22 sec) 
Heartbeat CPU 2 instructions: 110000000 cycles: 179526284 heartbeat IPC: 0.384237 cumulative IPC: 0.364052 (Simulation time: 0 hr 34 min 23 sec) 
Heartbeat CPU 0 instructions: 110000000 cycles: 180272068 heartbeat IPC: 0.381009 cumulative IPC: 0.362411 (Simulation time: 0 hr 34 min 26 sec) 
Heartbeat CPU 3 instructions: 120000000 cycles: 221992995 heartbeat IPC: 0.234868 cumulative IPC: 0.33771 (Simulation time: 0 hr 38 min 31 sec) 
Heartbeat CPU 1 instructions: 120000000 cycles: 222048375 heartbeat IPC: 0.234563 cumulative IPC: 0.33762 (Simulation time: 0 hr 38 min 31 sec) 
Heartbeat CPU 2 instructions: 120000000 cycles: 222313424 heartbeat IPC: 0.233715 cumulative IPC: 0.337189 (Simulation time: 0 hr 38 min 33 sec) 
Heartbeat CPU 0 instructions: 120000000 cycles: 222946753 heartbeat IPC: 0.234331 cumulative IPC: 0.336163 (Simulation time: 0 hr 38 min 37 sec) 
Heartbeat CPU 3 instructions: 130000002 cycles: 264627405 heartbeat IPC: 0.234552 cumulative IPC: 0.320112 (Simulation time: 0 hr 42 min 28 sec) 
Heartbeat CPU 1 instructions: 130000002 cycles: 264641715 heartbeat IPC: 0.234779 cumulative IPC: 0.320093 (Simulation time: 0 hr 42 min 28 sec) 
Heartbeat CPU 2 instructions: 130000002 cycles: 264912331 heartbeat IPC: 0.234748 cumulative IPC: 0.319747 (Simulation time: 0 hr 42 min 29 sec) 
Heartbeat CPU 0 instructions: 130000002 cycles: 265504679 heartbeat IPC: 0.234974 cumulative IPC: 0.318991 (Simulation time: 0 hr 42 min 32 sec) 
Heartbeat CPU 1 instructions: 140000002 cycles: 309962055 heartbeat IPC: 0.220651 cumulative IPC: 0.304829 (Simulation time: 0 hr 46 min 30 sec) 
Heartbeat CPU 3 instructions: 140000002 cycles: 309978927 heartbeat IPC: 0.2205 cumulative IPC: 0.304812 (Simulation time: 0 hr 46 min 30 sec) 
Heartbeat CPU 2 instructions: 140000002 cycles: 310573516 heartbeat IPC: 0.219004 cumulative IPC: 0.304199 (Simulation time: 0 hr 46 min 34 sec) 
Heartbeat CPU 0 instructions: 140000002 cycles: 311160896 heartbeat IPC: 0.219028 cumulative IPC: 0.303596 (Simulation time: 0 hr 46 min 37 sec) 
Heartbeat CPU 3 instructions: 150000003 cycles: 355820163 heartbeat IPC: 0.218144 cumulative IPC: 0.293164 (Simulation time: 0 hr 51 min 10 sec) 
Heartbeat CPU 1 instructions: 150000003 cycles: 355829713 heartbeat IPC: 0.218019 cumulative IPC: 0.293156 (Simulation time: 0 hr 51 min 11 sec) 
Heartbeat CPU 2 instructions: 150000003 cycles: 356748166 heartbeat IPC: 0.216569 cumulative IPC: 0.292369 (Simulation time: 0 hr 51 min 19 sec) 
Heartbeat CPU 0 instructions: 150000003 cycles: 357395476 heartbeat IPC: 0.216288 cumulative IPC: 0.291816 (Simulation time: 0 hr 51 min 24 sec) 
Heartbeat CPU 3 instructions: 160000001 cycles: 374760713 heartbeat IPC: 0.527968 cumulative IPC: 0.305517 (Simulation time: 0 hr 54 min 7 sec) 
Heartbeat CPU 1 instructions: 160000001 cycles: 374784658 heartbeat IPC: 0.527567 cumulative IPC: 0.305496 (Simulation time: 0 hr 54 min 8 sec) 
Heartbeat CPU 2 instructions: 160000001 cycles: 375665387 heartbeat IPC: 0.528619 cumulative IPC: 0.304751 (Simulation time: 0 hr 54 min 28 sec) 
Heartbeat CPU 0 instructions: 160000001 cycles: 376301237 heartbeat IPC: 0.528939 cumulative IPC: 0.304214 (Simulation time: 0 hr 54 min 44 sec) 
Heartbeat CPU 3 instructions: 170000001 cycles: 382559236 heartbeat IPC: 1.28229 cumulative IPC: 0.326225 (Simulation time: 0 hr 57 min 7 sec) 
Heartbeat CPU 1 instructions: 170000001 cycles: 382583995 heartbeat IPC: 1.28216 cumulative IPC: 0.326203 (Simulation time: 0 hr 57 min 7 sec) 
Heartbeat CPU 2 instructions: 170000001 cycles: 383553074 heartbeat IPC: 1.2678 cumulative IPC: 0.325346 (Simulation time: 0 hr 57 min 28 sec) 
Heartbeat CPU 0 instructions: 170000001 cycles: 384320441 heartbeat IPC: 1.24701 cumulative IPC: 0.32467 (Simulation time: 0 hr 57 min 47 sec) 
Heartbeat CPU 3 instructions: 180000000 cycles: 396207163 heartbeat IPC: 0.732712 cumulative IPC: 0.340767 (Simulation time: 1 hr 0 min 41 sec) 
Heartbeat CPU 1 instructions: 180000000 cycles: 396304519 heartbeat IPC: 0.728835 cumulative IPC: 0.34068 (Simulation time: 1 hr 0 min 42 sec) 
Heartbeat CPU 2 instructions: 180000000 cycles: 398422314 heartbeat IPC: 0.672529 cumulative IPC: 0.3388 (Simulation time: 1 hr 1 min 0 sec) 
Heartbeat CPU 0 instructions: 180000000 cycles: 399452979 heartbeat IPC: 0.660828 cumulative IPC: 0.337892 (Simulation time: 1 hr 1 min 9 sec) 
Heartbeat CPU 3 instructions: 190000000 cycles: 429369948 heartbeat IPC: 0.301543 cumulative IPC: 0.33763 (Simulation time: 1 hr 4 min 29 sec) 
Heartbeat CPU 1 instructions: 190000000 cycles: 429376135 heartbeat IPC: 0.302374 cumulative IPC: 0.337625 (Simulation time: 1 hr 4 min 29 sec) 
Heartbeat CPU 2 instructions: 190000000 cycles: 430841799 heartbeat IPC: 0.308456 cumulative IPC: 0.336436 (Simulation time: 1 hr 4 min 36 sec) 
Heartbeat CPU 0 instructions: 190000000 cycles: 431589854 heartbeat IPC: 0.311169 cumulative IPC: 0.335832 (Simulation time: 1 hr 4 min 40 sec) 
Heartbeat CPU 1 instructions: 200000000 cycles: 471594184 heartbeat IPC: 0.236866 cumulative IPC: 0.328314 (Simulation time: 1 hr 7 min 54 sec) 
Heartbeat CPU 3 instructions: 200000000 cycles: 471635526 heartbeat IPC: 0.236599 cumulative IPC: 0.328284 (Simulation time: 1 hr 7 min 55 sec) 
Heartbeat CPU 2 instructions: 200000000 cycles: 473348522 heartbeat IPC: 0.235257 cumulative IPC: 0.327058 (Simulation time: 1 hr 8 min 3 sec) 
Heartbeat CPU 0 instructions: 200000000 cycles: 474107622 heartbeat IPC: 0.235196 cumulative IPC: 0.326518 (Simulation time: 1 hr 8 min 6 sec) 
Heartbeat CPU 1 instructions: 210000003 cycles: 513789578 heartbeat IPC: 0.236993 cumulative IPC: 0.320593 (Simulation time: 1 hr 11 min 12 sec) 
Heartbeat CPU 3 instructions: 210000003 cycles: 513819338 heartbeat IPC: 0.237058 cumulative IPC: 0.320574 (Simulation time: 1 hr 11 min 12 sec) 
Heartbeat CPU 2 instructions: 210000003 cycles: 515645451 heartbeat IPC: 0.236424 cumulative IPC: 0.319405 (Simulation time: 1 hr 11 min 21 sec) 
Heartbeat CPU 0 instructions: 210000003 cycles: 516564130 heartbeat IPC: 0.235535 cumulative IPC: 0.31882 (Simulation time: 1 hr 11 min 25 sec) 
Heartbeat CPU 1 instructions: 220000000 cycles: 561336279 heartbeat IPC: 0.210319 cumulative IPC: 0.311001 (Simulation time: 1 hr 15 min 23 sec) 
Heartbeat CPU 3 instructions: 220000000 cycles: 561422578 heartbeat IPC: 0.21007 cumulative IPC: 0.310952 (Simulation time: 1 hr 15 min 24 sec) 
Heartbeat CPU 2 instructions: 220000000 cycles: 563130520 heartbeat IPC: 0.210592 cumulative IPC: 0.309984 (Simulation time: 1 hr 15 min 34 sec) 
Heartbeat CPU 0 instructions: 220000000 cycles: 564175904 heartbeat IPC: 0.210032 cumulative IPC: 0.309394 (Simulation time: 1 hr 15 min 40 sec) 
Heartbeat CPU 1 instructions: 230000000 cycles: 600421655 heartbeat IPC: 0.25585 cumulative IPC: 0.307321 (Simulation time: 1 hr 19 min 23 sec) 
Heartbeat CPU 3 instructions: 230000000 cycles: 600486554 heartbeat IPC: 0.25599 cumulative IPC: 0.307287 (Simulation time: 1 hr 19 min 24 sec) 
Heartbeat CPU 2 instructions: 230000000 cycles: 602413017 heartbeat IPC: 0.254566 cumulative IPC: 0.30628 (Simulation time: 1 hr 19 min 40 sec) 
Heartbeat CPU 0 instructions: 230000000 cycles: 603666262 heartbeat IPC: 0.253226 cumulative IPC: 0.305628 (Simulation time: 1 hr 19 min 50 sec) 
Heartbeat CPU 1 instructions: 240000002 cycles: 615711624 heartbeat IPC: 0.654024 cumulative IPC: 0.316141 (Simulation time: 1 hr 22 min 16 sec) 
Heartbeat CPU 3 instructions: 240000002 cycles: 615782420 heartbeat IPC: 0.653772 cumulative IPC: 0.316104 (Simulation time: 1 hr 22 min 18 sec) 
Heartbeat CPU 2 instructions: 240000002 cycles: 617674560 heartbeat IPC: 0.655242 cumulative IPC: 0.315112 (Simulation time: 1 hr 22 min 58 sec) 
Heartbeat CPU 0 instructions: 240000002 cycles: 618907593 heartbeat IPC: 0.656111 cumulative IPC: 0.314469 (Simulation time: 1 hr 23 min 27 sec) 
Heartbeat CPU 1 instructions: 250000001 cycles: 623728394 heartbeat IPC: 1.24739 cumulative IPC: 0.3284 (Simulation time: 1 hr 25 min 19 sec) 
Finished CPU 1 instructions: 200000001 cycles: 609013741 cumulative IPC: 0.3284 (Simulation time: 1 hr 25 min 19 sec) 
Heartbeat CPU 3 instructions: 250000001 cycles: 623806151 heartbeat IPC: 1.2463 cumulative IPC: 0.328358 (Simulation time: 1 hr 25 min 21 sec) 
Finished CPU 3 instructions: 200000000 cycles: 609091419 cumulative IPC: 0.328358 (Simulation time: 1 hr 25 min 21 sec) 
Heartbeat CPU 2 instructions: 250000001 cycles: 625998454 heartbeat IPC: 1.20136 cumulative IPC: 0.32718 (Simulation time: 1 hr 26 min 13 sec) 
Finished CPU 2 instructions: 200000001 cycles: 611283759 cumulative IPC: 0.32718 (Simulation time: 1 hr 26 min 13 sec) 
Heartbeat CPU 0 instructions: 250000001 cycles: 627682074 heartbeat IPC: 1.13967 cumulative IPC: 0.326281 (Simulation time: 1 hr 26 min 40 sec) 
Finished CPU 0 instructions: 200000000 cycles: 612967514 cumulative IPC: 0.326282 (Simulation time: 1 hr 26 min 40 sec) 

ChampSim completed all CPUs

Total Simulation Statistics (not including warmup)

CPU 0 cumulative IPC: 0.326282 instructions: 200000000 cycles: 612967514
ITLB TOTAL     ACCESS:   33405997  HIT:   33405997  MISS:          0  HIT %:        100  MISS %:          0   MPKI: 0
ITLB LOAD      ACCESS:          0  HIT:          0  MISS:          0  HIT %:       -nan  MISS %:       -nan   MPKI: 0
ITLB RFO       ACCESS:          0  HIT:          0  MISS:          0  HIT %:       -nan  MISS %:       -nan   MPKI: 0
ITLB PREFETCH  ACCESS:          0  HIT:          0  MISS:          0  HIT %:       -nan  MISS %:       -nan   MPKI: 0
ITLB WRITEBACK ACCESS:          0  HIT:          0  MISS:          0  HIT %:       -nan  MISS %:       -nan   MPKI: 0
DTLB TOTAL     ACCESS:   34964826  HIT:   34774665  MISS:     190161  HIT %:    99.4561  MISS %:   0.543864   MPKI: 0.950805
DTLB LOAD      ACCESS:          0  HIT:          0  MISS:          0  HIT %:       -nan  MISS %:       -nan   MPKI: 0
DTLB RFO       ACCESS:          0  HIT:          0  MISS:          0  HIT %:       -nan  MISS %:       -nan   MPKI: 0
DTLB PREFETCH  ACCESS:          0  HIT:          0  MISS:          0  HIT %:       -nan  MISS %:       -nan   MPKI: 0
DTLB WRITEBACK ACCESS:          0  HIT:          0  MISS:          0  HIT %:       -nan  MISS %:       -nan   MPKI: 0
STLB TOTAL     ACCESS:   17782684  HIT:   17615027  MISS:     167657  HIT %:    99.0572  MISS %:    0.94281   MPKI: 0.838285
STLB LOAD      ACCESS:          0  HIT:          0  MISS:          0  HIT %:       -nan  MISS %:       -nan   MPKI: 0
STLB RFO       ACCESS:          0  HIT:          0  MISS:          0  HIT %:       -nan  MISS %:       -nan   MPKI: 0
STLB PREFETCH  ACCESS:          0  HIT:          0  MISS:          0  HIT %:       -nan  MISS %:       -nan   MPKI: 0
STLB WRITEBACK ACCESS:          0  HIT:          0  MISS:          0  HIT %:       -nan  MISS %:       -nan   MPKI: 0
L1D TOTAL     ACCESS:   87802137  HIT:   82544729  MISS:    5257408  HIT %:    94.0122  MISS %:    5.98779   MPKI: 26.287
L1D LOAD      ACCESS:   31946334  HIT:   28506779  MISS:    3439555  HIT %:    89.2333  MISS %:    10.7667   MPKI: 17.1978
L1D RFO       ACCESS:    3612896  HIT:    3454526  MISS:     158370  HIT %:    95.6165  MISS %:    4.38346   MPKI: 0.79185
L1D PREFETCH  ACCESS:   52242907  HIT:   50583424  MISS:    1659483  HIT %:    96.8235  MISS %:    3.17648   MPKI: 8.29742
L1D WRITEBACK ACCESS:          0  HIT:          0  MISS:          0  HIT %:       -nan  MISS %:       -nan   MPKI: 0
L1I TOTAL     ACCESS:   42116689  HIT:   42116674  MISS:         15  HIT %:        100  MISS %: 3.56153e-05   MPKI: 7.5e-05
L1I LOAD      ACCESS:   42116689  HIT:   42116674  MISS:         15  HIT %:        100  MISS %: 3.56153e-05   MPKI: 7.5e-05
L1I RFO       ACCESS:          0  HIT:          0  MISS:          0  HIT %:       -nan  MISS %:       -nan   MPKI: 0
L1I PREFETCH  ACCESS:          0  HIT:          0  MISS:          0  HIT %:       -nan  MISS %:       -nan   MPKI: 0
L1I WRITEBACK ACCESS:          0  HIT:          0  MISS:          0  HIT %:       -nan  MISS %:       -nan   MPKI: 0
L2C TOTAL     ACCESS:   20854431  HIT:   16166450  MISS:    4687981  HIT %:    77.5205  MISS %:    22.4795   MPKI: 23.4399
L2C LOAD      ACCESS:    3421479  HIT:    2021229  MISS:    1400250  HIT %:    59.0747  MISS %:    40.9253   MPKI: 7.00125
L2C RFO       ACCESS:     158370  HIT:       6439  MISS:     151931  HIT %:     4.0658  MISS %:    95.9342   MPKI: 0.759655
L2C PREFETCH  ACCESS:   16567183  HIT:   13531440  MISS:    3035743  HIT %:    81.6762  MISS %:    18.3238   MPKI: 15.1787
L2C WRITEBACK ACCESS:     523028  HIT:     456069  MISS:      66959  HIT %:    87.1978  MISS %:    12.8022   MPKI: 0.334795
PSCL5 TOTAL     ACCESS:     183512  HIT:     183512  MISS:          0  HIT %:        100  MISS %:          0   MPKI: 0
PSCL5 LOAD      ACCESS:          0  HIT:          0  MISS:          0  HIT %:       -nan  MISS %:       -nan   MPKI: 0
PSCL5 RFO       ACCESS:          0  HIT:          0  MISS:          0  HIT %:       -nan  MISS %:       -nan   MPKI: 0
PSCL5 PREFETCH  ACCESS:          0  HIT:          0  MISS:          0  HIT %:       -nan  MISS %:       -nan   MPKI: 0
PSCL5 WRITEBACK ACCESS:          0  HIT:          0  MISS:          0  HIT %:       -nan  MISS %:       -nan   MPKI: 0
PSCL4 TOTAL     ACCESS:     183512  HIT:     183512  MISS:          0  HIT %:        100  MISS %:          0   MPKI: 0
PSCL4 LOAD      ACCESS:          0  HIT:          0  MISS:          0  HIT %:       -nan  MISS %:       -nan   MPKI: 0
PSCL4 RFO       ACCESS:          0  HIT:          0  MISS:          0  HIT %:       -nan  MISS %:       -nan   MPKI: 0
PSCL4 PREFETCH  ACCESS:          0  HIT:          0  MISS:          0  HIT %:       -nan  MISS %:       -nan   MPKI: 0
PSCL4 WRITEBACK ACCESS:          0  HIT:          0  MISS:          0  HIT %:       -nan  MISS %:       -nan   MPKI: 0
PSCL3 TOTAL     ACCESS:     183512  HIT:     183512  MISS:          0  HIT %:        100  MISS %:          0   MPKI: 0
PSCL3 LOAD      ACCESS:          0  HIT:          0  MISS:          0  HIT %:       -nan  MISS %:       -nan   MPKI: 0
PSCL3 RFO       ACCESS:          0  HIT:          0  MISS:          0  HIT %:       -nan  MISS %:       -nan   MPKI: 0
PSCL3 PREFETCH  ACCESS:          0  HIT:          0  MISS:          0  HIT %:       -nan  MISS %:       -nan   MPKI: 0
PSCL3 WRITEBACK ACCESS:          0  HIT:          0  MISS:          0  HIT %:       -nan  MISS %:       -nan   MPKI: 0
PSCL2 TOTAL     ACCESS:     183496  HIT:     182632  MISS:        864  HIT %:    99.5291  MISS %:   0.470855   MPKI: 0.00432
PSCL2 LOAD      ACCESS:          0  HIT:          0  MISS:          0  HIT %:       -nan  MISS %:       -nan   MPKI: 0
PSCL2 RFO       ACCESS:          0  HIT:          0  MISS:          0  HIT %:       -nan  MISS %:       -nan   MPKI: 0
PSCL2 PREFETCH  ACCESS:          0  HIT:          0  MISS:          0  HIT %:       -nan  MISS %:       -nan   MPKI: 0
PSCL2 WRITEBACK ACCESS:          0  HIT:          0  MISS:          0  HIT %:       -nan  MISS %:       -nan   MPKI: 0
LLC TOTAL     ACCESS:    5142278  HIT:    1096753  MISS:    4045525  HIT %:    21.3282  MISS %:    78.6718   MPKI: 20.2276
LLC LOAD      ACCESS:    1282985  HIT:     577867  MISS:     705118  HIT %:    45.0408  MISS %:    54.9592   MPKI: 3.52559
LLC RFO       ACCESS:     151931  HIT:       9575  MISS:     142356  HIT %:     6.3022  MISS %:    93.6978   MPKI: 0.71178
LLC PREFETCH  ACCESS:    3153008  HIT:      11531  MISS:    3141477  HIT %:   0.365714  MISS %:    99.6343   MPKI: 15.7074
LLC WRITEBACK ACCESS:     521256  HIT:     496585  MISS:      24671  HIT %:     95.267  MISS %:    4.73299   MPKI: 0.123355

RAW hits: 18799
Loads Generated: 49181529
Loads sent to L1D: 49162730
Stores Generated: 5542573
Stores sent to L1D: 5542573

CPU 1 cumulative IPC: 0.33154 instructions: 203223195 cycles: 612967514
ITLB TOTAL     ACCESS:   33927565  HIT:   33927565  MISS:          0  HIT %:        100  MISS %:          0   MPKI: 0
ITLB LOAD      ACCESS:          0  HIT:          0  MISS:          0  HIT %:       -nan  MISS %:       -nan   MPKI: 0
ITLB RFO       ACCESS:          0  HIT:          0  MISS:          0  HIT %:       -nan  MISS %:       -nan   MPKI: 0
ITLB PREFETCH  ACCESS:          0  HIT:          0  MISS:          0  HIT %:       -nan  MISS %:       -nan   MPKI: 0
ITLB WRITEBACK ACCESS:          0  HIT:          0  MISS:          0  HIT %:       -nan  MISS %:       -nan   MPKI: 0
DTLB TOTAL     ACCESS:   35331007  HIT:   35140086  MISS:     190921  HIT %:    99.4596  MISS %:   0.540378   MPKI: 0.939465
DTLB LOAD      ACCESS:          0  HIT:          0  MISS:          0  HIT %:       -nan  MISS %:       -nan   MPKI: 0
DTLB RFO       ACCESS:          0  HIT:          0  MISS:          0  HIT %:       -nan  MISS %:       -nan   MPKI: 0
DTLB PREFETCH  ACCESS:          0  HIT:          0  MISS:          0  HIT %:       -nan  MISS %:       -nan   MPKI: 0
DTLB WRITEBACK ACCESS:          0  HIT:          0  MISS:          0  HIT %:       -nan  MISS %:       -nan   MPKI: 0
STLB TOTAL     ACCESS:   18263092  HIT:   18094891  MISS:     168201  HIT %:     99.079  MISS %:   0.920989   MPKI: 0.827666
STLB LOAD      ACCESS:          0  HIT:          0  MISS:          0  HIT %:       -nan  MISS %:       -nan   MPKI: 0
STLB RFO       ACCESS:          0  HIT:          0  MISS:          0  HIT %:       -nan  MISS %:       -nan   MPKI: 0
STLB PREFETCH  ACCESS:          0  HIT:          0  MISS:          0  HIT %:       -nan  MISS %:       -nan   MPKI: 0
STLB WRITEBACK ACCESS:          0  HIT:          0  MISS:          0  HIT %:       -nan  MISS %:       -nan   MPKI: 0
L1D TOTAL     ACCESS:   91696164  HIT:   86392710  MISS:    5303454  HIT %:    94.2163  MISS %:    5.78373   MPKI: 26.0967
L1D LOAD      ACCESS:   32396301  HIT:   29026556  MISS:    3369745  HIT %:    89.5984  MISS %:    10.4016   MPKI: 16.5815
L1D RFO       ACCESS:    3648148  HIT:    3483613  MISS:     164535  HIT %:    95.4899  MISS %:     4.5101   MPKI: 0.809627
L1D PREFETCH  ACCESS:   55651715  HIT:   53882541  MISS:    1769174  HIT %:     96.821  MISS %:    3.17901   MPKI: 8.70557
L1D WRITEBACK ACCESS:          0  HIT:          0  MISS:          0  HIT %:       -nan  MISS %:       -nan   MPKI: 0
L1I TOTAL     ACCESS:   42703145  HIT:   42703130  MISS:         15  HIT %:        100  MISS %: 3.51262e-05   MPKI: 7.38105e-05
L1I LOAD      ACCESS:   42703145  HIT:   42703130  MISS:         15  HIT %:        100  MISS %: 3.51262e-05   MPKI: 7.38105e-05
L1I RFO       ACCESS:          0  HIT:          0  MISS:          0  HIT %:       -nan  MISS %:       -nan   MPKI: 0
L1I PREFETCH  ACCESS:          0  HIT:          0  MISS:          0  HIT %:       -nan  MISS %:       -nan   MPKI: 0
L1I WRITEBACK ACCESS:          0  HIT:          0  MISS:          0  HIT %:       -nan  MISS %:       -nan   MPKI: 0
L2C TOTAL     ACCESS:   20548542  HIT:   15825839  MISS:    4722703  HIT %:    77.0168  MISS %:    22.9832   MPKI: 23.239
L2C LOAD      ACCESS:    3358325  HIT:    1991486  MISS:    1366839  HIT %:       59.3  MISS %:       40.7   MPKI: 6.7258
L2C RFO       ACCESS:     164535  HIT:       6097  MISS:     158438  HIT %:    3.70559  MISS %:    96.2944   MPKI: 0.779626
L2C PREFETCH  ACCESS:   16312703  HIT:   13210755  MISS:    3101948  HIT %:    80.9845  MISS %:    19.0155   MPKI: 15.2637
L2C WRITEBACK ACCESS:     528959  HIT:     466735  MISS:      62224  HIT %:    88.2365  MISS %:    11.7635   MPKI: 0.306186
PSCL5 TOTAL     ACCESS:     183148  HIT:     183148  MISS:          0  HIT %:        100  MISS %:          0   MPKI: 0
PSCL5 LOAD      ACCESS:          0  HIT:          0  MISS:          0  HIT %:       -nan  MISS %:       -nan   MPKI: 0
PSCL5 RFO       ACCESS:          0  HIT:          0  MISS:          0  HIT %:       -nan  MISS %:       -nan   MPKI: 0
PSCL5 PREFETCH  ACCESS:          0  HIT:          0  MISS:          0  HIT %:       -nan  MISS %:       -nan   MPKI: 0
PSCL5 WRITEBACK ACCESS:          0  HIT:          0  MISS:          0  HIT %:       -nan  MISS %:       -nan   MPKI: 0
PSCL4 TOTAL     ACCESS:     183148  HIT:     183148  MISS:          0  HIT %:        100  MISS %:          0   MPKI: 0
PSCL4 LOAD      ACCESS:          0  HIT:          0  MISS:          0  HIT %:       -nan  MISS %:       -nan   MPKI: 0
PSCL4 RFO       ACCESS:          0  HIT:          0  MISS:          0  HIT %:       -nan  MISS %:       -nan   MPKI: 0
PSCL4 PREFETCH  ACCESS:          0  HIT:          0  MISS:          0  HIT %:       -nan  MISS %:       -nan   MPKI: 0
PSCL4 WRITEBACK ACCESS:          0  HIT:          0  MISS:          0  HIT %:       -nan  MISS %:       -nan   MPKI: 0
PSCL3 TOTAL     ACCESS:     183148  HIT:     183148  MISS:          0  HIT %:        100  MISS %:          0   MPKI: 0
PSCL3 LOAD      ACCESS:          0  HIT:          0  MISS:          0  HIT %:       -nan  MISS %:       -nan   MPKI: 0
PSCL3 RFO       ACCESS:          0  HIT:          0  MISS:          0  HIT %:       -nan  MISS %:       -nan   MPKI: 0
PSCL3 PREFETCH  ACCESS:          0  HIT:          0  MISS:          0  HIT %:       -nan  MISS %:       -nan   MPKI: 0
PSCL3 WRITEBACK ACCESS:          0  HIT:          0  MISS:          0  HIT %:       -nan  MISS %:       -nan   MPKI: 0
PSCL2 TOTAL     ACCESS:     183130  HIT:     182261  MISS:        869  HIT %:    99.5255  MISS %:   0.474526   MPKI: 0.00427609
PSCL2 LOAD      ACCESS:          0  HIT:          0  MISS:          0  HIT %:       -nan  MISS %:       -nan   MPKI: 0
PSCL2 RFO       ACCESS:          0  HIT:          0  MISS:          0  HIT %:       -nan  MISS %:       -nan   MPKI: 0
PSCL2 PREFETCH  ACCESS:          0  HIT:          0  MISS:          0  HIT %:       -nan  MISS %:       -nan   MPKI: 0
PSCL2 WRITEBACK ACCESS:          0  HIT:          0  MISS:          0  HIT %:       -nan  MISS %:       -nan   MPKI: 0
LLC TOTAL     ACCESS:    5185845  HIT:    1095750  MISS:    4090095  HIT %:    21.1296  MISS %:    78.8704   MPKI: 20.1261
LLC LOAD      ACCESS:    1273416  HIT:     572780  MISS:     700636  HIT %:    44.9798  MISS %:    55.0202   MPKI: 3.44762
LLC RFO       ACCESS:     158438  HIT:      10006  MISS:     148432  HIT %:     6.3154  MISS %:    93.6846   MPKI: 0.730389
LLC PREFETCH  ACCESS:    3195371  HIT:      12066  MISS:    3183305  HIT %:   0.377609  MISS %:    99.6224   MPKI: 15.6641
LLC WRITEBACK ACCESS:     525366  HIT:     499394  MISS:      25972  HIT %:    95.0564  MISS %:     4.9436   MPKI: 0.1278

RAW hits: 18805
Loads Generated: 49829232
Loads sent to L1D: 49810427
Stores Generated: 5641356
Stores sent to L1D: 5641355

CPU 2 cumulative IPC: 0.328883 instructions: 201594355 cycles: 612967514
ITLB TOTAL     ACCESS:   33642683  HIT:   33642683  MISS:          0  HIT %:        100  MISS %:          0   MPKI: 0
ITLB LOAD      ACCESS:          0  HIT:          0  MISS:          0  HIT %:       -nan  MISS %:       -nan   MPKI: 0
ITLB RFO       ACCESS:          0  HIT:          0  MISS:          0  HIT %:       -nan  MISS %:       -nan   MPKI: 0
ITLB PREFETCH  ACCESS:          0  HIT:          0  MISS:          0  HIT %:       -nan  MISS %:       -nan   MPKI: 0
ITLB WRITEBACK ACCESS:          0  HIT:          0  MISS:          0  HIT %:       -nan  MISS %:       -nan   MPKI: 0
DTLB TOTAL     ACCESS:   35100690  HIT:   34910218  MISS:     190472  HIT %:    99.4574  MISS %:   0.542645   MPKI: 0.944828
DTLB LOAD      ACCESS:          0  HIT:          0  MISS:          0  HIT %:       -nan  MISS %:       -nan   MPKI: 0
DTLB RFO       ACCESS:          0  HIT:          0  MISS:          0  HIT %:       -nan  MISS %:       -nan   MPKI: 0
DTLB PREFETCH  ACCESS:          0  HIT:          0  MISS:          0  HIT %:       -nan  MISS %:       -nan   MPKI: 0
DTLB WRITEBACK ACCESS:          0  HIT:          0  MISS:          0  HIT %:       -nan  MISS %:       -nan   MPKI: 0
STLB TOTAL     ACCESS:   18036474  HIT:   17868613  MISS:     167861  HIT %:    99.0693  MISS %:   0.930675   MPKI: 0.832667
STLB LOAD      ACCESS:          0  HIT:          0  MISS:          0  HIT %:       -nan  MISS %:       -nan   MPKI: 0
STLB RFO       ACCESS:          0  HIT:          0  MISS:          0  HIT %:       -nan  MISS %:       -nan   MPKI: 0
STLB PREFETCH  ACCESS:          0  HIT:          0  MISS:          0  HIT %:       -nan  MISS %:       -nan   MPKI: 0
STLB WRITEBACK ACCESS:          0  HIT:          0  MISS:          0  HIT %:       -nan  MISS %:       -nan   MPKI: 0
L1D TOTAL     ACCESS:   89543111  HIT:   84266420  MISS:    5276691  HIT %:    94.1071  MISS %:    5.89291   MPKI: 26.1748
L1D LOAD      ACCESS:   32184931  HIT:   28783520  MISS:    3401411  HIT %:    89.4317  MISS %:    10.5683   MPKI: 16.8726
L1D RFO       ACCESS:    3614554  HIT:    3456188  MISS:     158366  HIT %:    95.6187  MISS %:    4.38134   MPKI: 0.785568
L1D PREFETCH  ACCESS:   53743626  HIT:   52026712  MISS:    1716914  HIT %:    96.8054  MISS %:    3.19464   MPKI: 8.51668
L1D WRITEBACK ACCESS:          0  HIT:          0  MISS:          0  HIT %:       -nan  MISS %:       -nan   MPKI: 0
L1I TOTAL     ACCESS:   42353326  HIT:   42353311  MISS:         15  HIT %:        100  MISS %: 3.54163e-05   MPKI: 7.44068e-05
L1I LOAD      ACCESS:   42353326  HIT:   42353311  MISS:         15  HIT %:        100  MISS %: 3.54163e-05   MPKI: 7.44068e-05
L1I RFO       ACCESS:          0  HIT:          0  MISS:          0  HIT %:       -nan  MISS %:       -nan   MPKI: 0
L1I PREFETCH  ACCESS:          0  HIT:          0  MISS:          0  HIT %:       -nan  MISS %:       -nan   MPKI: 0
L1I WRITEBACK ACCESS:          0  HIT:          0  MISS:          0  HIT %:       -nan  MISS %:       -nan   MPKI: 0
L2C TOTAL     ACCESS:   20796944  HIT:   16100307  MISS:    4696637  HIT %:    77.4167  MISS %:    22.5833   MPKI: 23.2975
L2C LOAD      ACCESS:    3386537  HIT:    2015999  MISS:    1370538  HIT %:    59.5298  MISS %:    40.4702   MPKI: 6.79849
L2C RFO       ACCESS:     158366  HIT:       6508  MISS:     151858  HIT %:    4.10947  MISS %:    95.8905   MPKI: 0.753285
L2C PREFETCH  ACCESS:   16545498  HIT:   13469888  MISS:    3075610  HIT %:    81.4112  MISS %:    18.5888   MPKI: 15.2564
L2C WRITEBACK ACCESS:     523028  HIT:     457602  MISS:      65426  HIT %:    87.4909  MISS %:    12.5091   MPKI: 0.324543
PSCL5 TOTAL     ACCESS:     182638  HIT:     182638  MISS:          0  HIT %:        100  MISS %:          0   MPKI: 0
PSCL5 LOAD      ACCESS:          0  HIT:          0  MISS:          0  HIT %:       -nan  MISS %:       -nan   MPKI: 0
PSCL5 RFO       ACCESS:          0  HIT:          0  MISS:          0  HIT %:       -nan  MISS %:       -nan   MPKI: 0
PSCL5 PREFETCH  ACCESS:          0  HIT:          0  MISS:          0  HIT %:       -nan  MISS %:       -nan   MPKI: 0
PSCL5 WRITEBACK ACCESS:          0  HIT:          0  MISS:          0  HIT %:       -nan  MISS %:       -nan   MPKI: 0
PSCL4 TOTAL     ACCESS:     182638  HIT:     182638  MISS:          0  HIT %:        100  MISS %:          0   MPKI: 0
PSCL4 LOAD      ACCESS:          0  HIT:          0  MISS:          0  HIT %:       -nan  MISS %:       -nan   MPKI: 0
PSCL4 RFO       ACCESS:          0  HIT:          0  MISS:          0  HIT %:       -nan  MISS %:       -nan   MPKI: 0
PSCL4 PREFETCH  ACCESS:          0  HIT:          0  MISS:          0  HIT %:       -nan  MISS %:       -nan   MPKI: 0
PSCL4 WRITEBACK ACCESS:          0  HIT:          0  MISS:          0  HIT %:       -nan  MISS %:       -nan   MPKI: 0
PSCL3 TOTAL     ACCESS:     182638  HIT:     182638  MISS:          0  HIT %:        100  MISS %:          0   MPKI: 0
PSCL3 LOAD      ACCESS:          0  HIT:          0  MISS:          0  HIT %:       -nan  MISS %:       -nan   MPKI: 0
PSCL3 RFO       ACCESS:          0  HIT:          0  MISS:          0  HIT %:       -nan  MISS %:       -nan   MPKI: 0
PSCL3 PREFETCH  ACCESS:          0  HIT:          0  MISS:          0  HIT %:       -nan  MISS %:       -nan   MPKI: 0
PSCL3 WRITEBACK ACCESS:          0  HIT:          0  MISS:          0  HIT %:       -nan  MISS %:       -nan   MPKI: 0
PSCL2 TOTAL     ACCESS:     182616  HIT:     181752  MISS:        864  HIT %:    99.5269  MISS %:   0.473124   MPKI: 0.00428583
PSCL2 LOAD      ACCESS:          0  HIT:          0  MISS:          0  HIT %:       -nan  MISS %:       -nan   MPKI: 0
PSCL2 RFO       ACCESS:          0  HIT:          0  MISS:          0  HIT %:       -nan  MISS %:       -nan   MPKI: 0
PSCL2 PREFETCH  ACCESS:          0  HIT:          0  MISS:          0  HIT %:       -nan  MISS %:       -nan   MPKI: 0
PSCL2 WRITEBACK ACCESS:          0  HIT:          0  MISS:          0  HIT %:       -nan  MISS %:       -nan   MPKI: 0
LLC TOTAL     ACCESS:    5152481  HIT:    1086251  MISS:    4066230  HIT %:    21.0821  MISS %:    78.9179   MPKI: 20.1704
LLC LOAD      ACCESS:    1268567  HIT:     567456  MISS:     701111  HIT %:     44.732  MISS %:     55.268   MPKI: 3.47783
LLC RFO       ACCESS:     151858  HIT:       9644  MISS:     142214  HIT %:    6.35067  MISS %:    93.6493   MPKI: 0.705446
LLC PREFETCH  ACCESS:    3177580  HIT:      11415  MISS:    3166165  HIT %:   0.359236  MISS %:    99.6408   MPKI: 15.7056
LLC WRITEBACK ACCESS:     521271  HIT:     496360  MISS:      24911  HIT %:    95.2211  MISS %:     4.7789   MPKI: 0.12357

RAW hits: 18986
Loads Generated: 49500407
Loads sent to L1D: 49481421
Stores Generated: 5542575
Stores sent to L1D: 5542575

CPU 3 cumulative IPC: 0.331322 instructions: 203089787 cycles: 612967514
ITLB TOTAL     ACCESS:   33879092  HIT:   33879092  MISS:          0  HIT %:        100  MISS %:          0   MPKI: 0
ITLB LOAD      ACCESS:          0  HIT:          0  MISS:          0  HIT %:       -nan  MISS %:       -nan   MPKI: 0
ITLB RFO       ACCESS:          0  HIT:          0  MISS:          0  HIT %:       -nan  MISS %:       -nan   MPKI: 0
ITLB PREFETCH  ACCESS:          0  HIT:          0  MISS:          0  HIT %:       -nan  MISS %:       -nan   MPKI: 0
ITLB WRITEBACK ACCESS:          0  HIT:          0  MISS:          0  HIT %:       -nan  MISS %:       -nan   MPKI: 0
DTLB TOTAL     ACCESS:   35315289  HIT:   35124407  MISS:     190882  HIT %:    99.4595  MISS %:   0.540508   MPKI: 0.93989
DTLB LOAD      ACCESS:          0  HIT:          0  MISS:          0  HIT %:       -nan  MISS %:       -nan   MPKI: 0
DTLB RFO       ACCESS:          0  HIT:          0  MISS:          0  HIT %:       -nan  MISS %:       -nan   MPKI: 0
DTLB PREFETCH  ACCESS:          0  HIT:          0  MISS:          0  HIT %:       -nan  MISS %:       -nan   MPKI: 0
DTLB WRITEBACK ACCESS:          0  HIT:          0  MISS:          0  HIT %:       -nan  MISS %:       -nan   MPKI: 0
STLB TOTAL     ACCESS:   17961020  HIT:   17792874  MISS:     168146  HIT %:    99.0638  MISS %:   0.936172   MPKI: 0.827939
STLB LOAD      ACCESS:          0  HIT:          0  MISS:          0  HIT %:       -nan  MISS %:       -nan   MPKI: 0
STLB RFO       ACCESS:          0  HIT:          0  MISS:          0  HIT %:       -nan  MISS %:       -nan   MPKI: 0
STLB PREFETCH  ACCESS:          0  HIT:          0  MISS:          0  HIT %:       -nan  MISS %:       -nan   MPKI: 0
STLB WRITEBACK ACCESS:          0  HIT:          0  MISS:          0  HIT %:       -nan  MISS %:       -nan   MPKI: 0
L1D TOTAL     ACCESS:   91533214  HIT:   86231627  MISS:    5301587  HIT %:     94.208  MISS %:    5.79198   MPKI: 26.1046
L1D LOAD      ACCESS:   32462300  HIT:   29108532  MISS:    3353768  HIT %:    89.6687  MISS %:    10.3313   MPKI: 16.5137
L1D RFO       ACCESS:    3637410  HIT:    3473719  MISS:     163691  HIT %:    95.4998  MISS %:    4.50021   MPKI: 0.806003
L1D PREFETCH  ACCESS:   55433504  HIT:   53649376  MISS:    1784128  HIT %:    96.7815  MISS %:     3.2185   MPKI: 8.78492
L1D WRITEBACK ACCESS:          0  HIT:          0  MISS:          0  HIT %:       -nan  MISS %:       -nan   MPKI: 0
L1I TOTAL     ACCESS:   42645671  HIT:   42645656  MISS:         15  HIT %:        100  MISS %: 3.51736e-05   MPKI: 7.3859e-05
L1I LOAD      ACCESS:   42645671  HIT:   42645656  MISS:         15  HIT %:        100  MISS %: 3.51736e-05   MPKI: 7.3859e-05
L1I RFO       ACCESS:          0  HIT:          0  MISS:          0  HIT %:       -nan  MISS %:       -nan   MPKI: 0
L1I PREFETCH  ACCESS:          0  HIT:          0  MISS:          0  HIT %:       -nan  MISS %:       -nan   MPKI: 0
L1I WRITEBACK ACCESS:          0  HIT:          0  MISS:          0  HIT %:       -nan  MISS %:       -nan   MPKI: 0
L2C TOTAL     ACCESS:   20777285  HIT:   16047346  MISS:    4729939  HIT %:     77.235  MISS %:     22.765   MPKI: 23.2899
L2C LOAD      ACCESS:    3341764  HIT:    1993800  MISS:    1347964  HIT %:    59.6631  MISS %:    40.3369   MPKI: 6.63728
L2C RFO       ACCESS:     163691  HIT:       6855  MISS:     156836  HIT %:    4.18777  MISS %:    95.8122   MPKI: 0.77225
L2C PREFETCH  ACCESS:   16559462  HIT:   13431146  MISS:    3128316  HIT %:    81.1086  MISS %:    18.8914   MPKI: 15.4036
L2C WRITEBACK ACCESS:     528115  HIT:     464423  MISS:      63692  HIT %:    87.9397  MISS %:    12.0603   MPKI: 0.313615
PSCL5 TOTAL     ACCESS:     183390  HIT:     183390  MISS:          0  HIT %:        100  MISS %:          0   MPKI: 0
PSCL5 LOAD      ACCESS:          0  HIT:          0  MISS:          0  HIT %:       -nan  MISS %:       -nan   MPKI: 0
PSCL5 RFO       ACCESS:          0  HIT:          0  MISS:          0  HIT %:       -nan  MISS %:       -nan   MPKI: 0
PSCL5 PREFETCH  ACCESS:          0  HIT:          0  MISS:          0  HIT %:       -nan  MISS %:       -nan   MPKI: 0
PSCL5 WRITEBACK ACCESS:          0  HIT:          0  MISS:          0  HIT %:       -nan  MISS %:       -nan   MPKI: 0
PSCL4 TOTAL     ACCESS:     183390  HIT:     183390  MISS:          0  HIT %:        100  MISS %:          0   MPKI: 0
PSCL4 LOAD      ACCESS:          0  HIT:          0  MISS:          0  HIT %:       -nan  MISS %:       -nan   MPKI: 0
PSCL4 RFO       ACCESS:          0  HIT:          0  MISS:          0  HIT %:       -nan  MISS %:       -nan   MPKI: 0
PSCL4 PREFETCH  ACCESS:          0  HIT:          0  MISS:          0  HIT %:       -nan  MISS %:       -nan   MPKI: 0
PSCL4 WRITEBACK ACCESS:          0  HIT:          0  MISS:          0  HIT %:       -nan  MISS %:       -nan   MPKI: 0
PSCL3 TOTAL     ACCESS:     183390  HIT:     183390  MISS:          0  HIT %:        100  MISS %:          0   MPKI: 0
PSCL3 LOAD      ACCESS:          0  HIT:          0  MISS:          0  HIT %:       -nan  MISS %:       -nan   MPKI: 0
PSCL3 RFO       ACCESS:          0  HIT:          0  MISS:          0  HIT %:       -nan  MISS %:       -nan   MPKI: 0
PSCL3 PREFETCH  ACCESS:          0  HIT:          0  MISS:          0  HIT %:       -nan  MISS %:       -nan   MPKI: 0
PSCL3 WRITEBACK ACCESS:          0  HIT:          0  MISS:          0  HIT %:       -nan  MISS %:       -nan   MPKI: 0
PSCL2 TOTAL     ACCESS:     183377  HIT:     182507  MISS:        870  HIT %:    99.5256  MISS %:   0.474432   MPKI: 0.00428382
PSCL2 LOAD      ACCESS:          0  HIT:          0  MISS:          0  HIT %:       -nan  MISS %:       -nan   MPKI: 0
PSCL2 RFO       ACCESS:          0  HIT:          0  MISS:          0  HIT %:       -nan  MISS %:       -nan   MPKI: 0
PSCL2 PREFETCH  ACCESS:          0  HIT:          0  MISS:          0  HIT %:       -nan  MISS %:       -nan   MPKI: 0
PSCL2 WRITEBACK ACCESS:          0  HIT:          0  MISS:          0  HIT %:       -nan  MISS %:       -nan   MPKI: 0
LLC TOTAL     ACCESS:    5190728  HIT:    1092242  MISS:    4098486  HIT %:    21.0422  MISS %:    78.9578   MPKI: 20.1807
LLC LOAD      ACCESS:    1269893  HIT:     571656  MISS:     698237  HIT %:    45.0161  MISS %:    54.9839   MPKI: 3.43807
LLC RFO       ACCESS:     156836  HIT:       9348  MISS:     147488  HIT %:    5.96037  MISS %:    94.0396   MPKI: 0.726221
LLC PREFETCH  ACCESS:    3206387  HIT:      12056  MISS:    3194331  HIT %:      0.376  MISS %:     99.624   MPKI: 15.7287
LLC WRITEBACK ACCESS:     524481  HIT:     497931  MISS:      26550  HIT %:    94.9379  MISS %:    5.06215   MPKI: 0.13073

RAW hits: 18854
Loads Generated: 49802137
Loads sent to L1D: 49783281
Stores Generated: 5627800
Stores sent to L1D: 5627799

Region of Interest Statistics

CPU 0 cumulative IPC: 0.326282 instructions: 200000000 cycles: 612967514
ITLB TOTAL     ACCESS:   33405997  HIT:   33405997  MISS:          0  HIT %:        100  MISS %:          0   MPKI: 0
ITLB LOAD TRANSLATION ACCESS:   33405997  HIT:   33405997  MISS:          0  HIT %:        100  MISS %:          0   MPKI: 0
ITLB PREFETCH  REQUESTED:          0  ISSUED:          0  USEFUL:          0  USELESS:          0
ITLB USEFUL LOAD PREFETCHES:          0 PREFETCH ISSUED TO LOWER LEVEL:          0  ACCURACY: -nan
ITLB TIMELY PREFETCHES:          0 LATE PREFETCHES: 0 DROPPED PREFETCHES: 0
ITLB PREFETCHES SAME FILL-ORIGIN LEVEL: 0 DIFFERENT FILL-ORIGIN LEVEL: 0
ITLB AVERAGE MISS LATENCY: -nan cycles
ITLB RQ	ACCESS:   42116690	FORWARD:          0	MERGED:    8710694	TO_CACHE:   33405996

DTLB TOTAL     ACCESS:   34964826  HIT:   34774665  MISS:     190161  HIT %:    99.4561  MISS %:   0.543864   MPKI: 0.950805
DTLB LOAD TRANSLATION ACCESS:   34964826  HIT:   34774665  MISS:     190161  HIT %:    99.4561  MISS %:   0.543864   MPKI: 0.950805
DTLB PREFETCH  REQUESTED:          0  ISSUED:          0  USEFUL:          0  USELESS:          0
DTLB USEFUL LOAD PREFETCHES:          0 PREFETCH ISSUED TO LOWER LEVEL:          0  ACCURACY: -nan
DTLB TIMELY PREFETCHES:          0 LATE PREFETCHES: 0 DROPPED PREFETCHES: 0
DTLB PREFETCHES SAME FILL-ORIGIN LEVEL: 0 DIFFERENT FILL-ORIGIN LEVEL: 0
DTLB AVERAGE MISS LATENCY: 71.9549 cycles
DTLB RQ	ACCESS:   37915369	FORWARD:          0	MERGED:    2936450	TO_CACHE:   34978919

STLB TOTAL     ACCESS:   17782684  HIT:   17615027  MISS:     167657  HIT %:    99.0572  MISS %:    0.94281   MPKI: 0.838285
STLB LOAD TRANSLATION ACCESS:     190161  HIT:      82865  MISS:     107296  HIT %:    43.5762  MISS %:    56.4238   MPKI: 0.53648
STLB TRANSLATION FROM L1D PREFETCHER ACCESS:   17592523  HIT:   17532162  MISS:      60361  HIT %:    99.6569  MISS %:   0.343106   MPKI: 0.301805
STLB PREFETCH  REQUESTED:          0  ISSUED:          0  USEFUL:      60025  USELESS:        343
STLB USEFUL LOAD PREFETCHES:      60025 PREFETCH ISSUED TO LOWER LEVEL:          0  ACCURACY: inf
STLB TIMELY PREFETCHES:      60025 LATE PREFETCHES: 587 DROPPED PREFETCHES: 15823
STLB PREFETCHES SAME FILL-ORIGIN LEVEL: 0 DIFFERENT FILL-ORIGIN LEVEL: 0
STLB AVERAGE MISS LATENCY: 92.882 cycles
STLB RQ	ACCESS:   75522207	FORWARD:          0	MERGED:   57719058	TO_CACHE:   17803149

STLB Hit, L1D data hit: 0
STLB Hit, L2C data hit: 0
STLB Hit, LLC data hit: 0
STLB Hit, LLC data miss: 0
STLB STLB hints to L2: 0
L1D TOTAL     ACCESS:   87802137  HIT:   82544729  MISS:    5257408  HIT %:    94.0122  MISS %:    5.98779   MPKI: 26.287
L1D LOAD      ACCESS:   31946334  HIT:   28506779  MISS:    3439555  HIT %:    89.2333  MISS %:    10.7667   MPKI: 17.1978
L1D RFO       ACCESS:    3612896  HIT:    3454526  MISS:     158370  HIT %:    95.6165  MISS %:    4.38346   MPKI: 0.79185
L1D PREFETCH  ACCESS:   52242907  HIT:   50583424  MISS:    1659483  HIT %:    96.8235  MISS %:    3.17648   MPKI: 8.29742
L1D PREFETCH  REQUESTED:  162275744  ISSUED:  161798294  USEFUL:    1632325  USELESS:      27180
L1D USEFUL LOAD PREFETCHES:    1632325 PREFETCH ISSUED TO LOWER LEVEL:   20157138  ACCURACY: 8.098
L1D TIMELY PREFETCHES:    1632325 LATE PREFETCHES: 18091 DROPPED PREFETCHES: 25276
L1D PREFETCHES SAME FILL-ORIGIN LEVEL: 1677574 DIFFERENT FILL-ORIGIN LEVEL: 18479564
L1D AVERAGE MISS LATENCY: 138.597 cycles
L1D RQ	ACCESS:   49162730	FORWARD:          0	MERGED:   16777277	TO_CACHE:   32384971
L1D WQ	ACCESS:    5542573	FORWARD:        482	MERGED:      12175	TO_CACHE:    5530398
L1D PQ	ACCESS:   86466248	FORWARD:          0	MERGED:   11134202	TO_CACHE:   75332046

L1D UNIQUE REGIONS ACCESSED: 0
L1D REGIONS CONFLICTS: 0
L1D Cross Page Prefetch Requests: 7886732
L1D Same Page Prefetch Requests: 93632308
L1D ROI Sum of L1D PQ occupancy: 969929004
L1D PREFETCHES PUSHED FROM L2C: 0
L1I TOTAL     ACCESS:   42116689  HIT:   42116674  MISS:         15  HIT %:        100  MISS %: 3.56153e-05   MPKI: 7.5e-05
L1I LOAD      ACCESS:   42116689  HIT:   42116674  MISS:         15  HIT %:        100  MISS %: 3.56153e-05   MPKI: 7.5e-05
L1I PREFETCH  REQUESTED:          0  ISSUED:          0  USEFUL:          0  USELESS:          0
L1I USEFUL LOAD PREFETCHES:          0 PREFETCH ISSUED TO LOWER LEVEL:          0  ACCURACY: -nan
L1I TIMELY PREFETCHES:          0 LATE PREFETCHES: 0 DROPPED PREFETCHES: 0
L1I PREFETCHES SAME FILL-ORIGIN LEVEL: 0 DIFFERENT FILL-ORIGIN LEVEL: 0
L1I AVERAGE MISS LATENCY: 314.2 cycles
L1I RQ	ACCESS:   64955206	FORWARD:          0	MERGED:   22838516	TO_CACHE:   42116690

BTB TOTAL     ACCESS:   42321499  HIT:   42321184  MISS:        315  HIT %:    99.9993  MISS %: 0.000744303   MPKI: 0.001575
BTB BRANCH_DIRECT_JUMP	ACCESS:       5431  HIT:       5387  MISS:         44
BTB BRANCH_INDIRECT	ACCESS:          2  HIT:          1  MISS:          1
BTB BRANCH_CONDITIONAL	ACCESS:   42315554  HIT:   42315455  MISS:         99
BTB BRANCH_DIRECT_CALL	ACCESS:        250  HIT:        208  MISS:         42
BTB BRANCH_INDIRECT_CALL	ACCESS:          6  HIT:          3  MISS:          3
BTB BRANCH_RETURN	ACCESS:        256  HIT:        130  MISS:        126
BTB BRANCH_OTHER ACCESS:          0  HIT:          0  MISS:          0

L2C TOTAL     ACCESS:   20854431  HIT:   16166450  MISS:    4687981  HIT %:    77.5205  MISS %:    22.4795   MPKI: 23.4399
L2C LOAD      ACCESS:    3421479  HIT:    2021229  MISS:    1400250  HIT %:    59.0747  MISS %:    40.9253   MPKI: 7.00125
L2C DATA LOAD MPKI: 7.00117
L2C INSTRUCTION LOAD MPKI: 7.5e-05
L2C RFO       ACCESS:     158370  HIT:       6439  MISS:     151931  HIT %:     4.0658  MISS %:    95.9342   MPKI: 0.759655
L2C PREFETCH  ACCESS:   16567183  HIT:   13531440  MISS:    3035743  HIT %:    81.6762  MISS %:    18.3238   MPKI: 15.1787
L2C DATA PREFETCH MPKI: 15.1787
L2C INSTRUCTION PREFETCH MPKI: 0
L2C WRITEBACK ACCESS:     523028  HIT:     456069  MISS:      66959  HIT %:    87.1978  MISS %:    12.8022   MPKI: 0.334795
L2C LOAD TRANSLATION ACCESS:     107484  HIT:      83099  MISS:      24385  HIT %:    77.3129  MISS %:    22.6871   MPKI: 0.121925
L2C TRANSLATION FROM L1D PREFETCHER ACCESS:      76887  HIT:      68174  MISS:       8713  HIT %:    88.6678  MISS %:    11.3322   MPKI: 0.043565
L2C PREFETCH  REQUESTED:          0  ISSUED:          0  USEFUL:     677439  USELESS:    2368714
L2C USEFUL LOAD PREFETCHES:     677439 PREFETCH ISSUED TO LOWER LEVEL:    3153012  ACCURACY: 21.4855
L2C TIMELY PREFETCHES:     677439 LATE PREFETCHES: 117265 DROPPED PREFETCHES: 0
L2C PREFETCHES SAME FILL-ORIGIN LEVEL: 2187597 DIFFERENT FILL-ORIGIN LEVEL: 0
L2C AVERAGE MISS LATENCY: 265.535 cycles
L2C RQ	ACCESS:    3764219	FORWARD:          0	MERGED:          0	TO_CACHE:    3764219
L2C WQ	ACCESS:     523028	FORWARD:          0	MERGED:          0	TO_CACHE:     523028
L2C PQ	ACCESS:   20157138	FORWARD:          0	MERGED:      24464	TO_CACHE:   20132674

L2C Instructions Evicting Data 15
L2C Translations Evicting Data 32605
L2C Data Evicting Data 4555500
L2C Instructions Evicting Instructions 0
L2C Translations Evicting Instructions 1
L2C Data Evicting Instructions 14
L2C Instructions Evicting Translations 0
L2C Translations Evicting Translations 492
L2C Data Evicting Translations 32395
L2C Dense regions hint from L2: 0
PSCL5 TOTAL     ACCESS:     183512  HIT:     183512  MISS:          0  HIT %:        100  MISS %:          0   MPKI: 0
PSCL5 LOAD TRANSLATION ACCESS:     106741  HIT:     106741  MISS:          0  HIT %:        100  MISS %:          0   MPKI: 0
PSCL5 TRANSLATION FROM L1D PREFETCHER ACCESS:      76771  HIT:      76771  MISS:          0  HIT %:        100  MISS %:          0   MPKI: 0
PSCL5 PREFETCH  REQUESTED:          0  ISSUED:          0  USEFUL:          0  USELESS:          0
PSCL5 USEFUL LOAD PREFETCHES:          0 PREFETCH ISSUED TO LOWER LEVEL:          0  ACCURACY: -nan
PSCL5 TIMELY PREFETCHES:          0 LATE PREFETCHES: 0 DROPPED PREFETCHES: 0
PSCL5 PREFETCHES SAME FILL-ORIGIN LEVEL: 0 DIFFERENT FILL-ORIGIN LEVEL: 0

PSCL4 TOTAL     ACCESS:     183512  HIT:     183512  MISS:          0  HIT %:        100  MISS %:          0   MPKI: 0
PSCL4 LOAD TRANSLATION ACCESS:     106741  HIT:     106741  MISS:          0  HIT %:        100  MISS %:          0   MPKI: 0
PSCL4 TRANSLATION FROM L1D PREFETCHER ACCESS:      76771  HIT:      76771  MISS:          0  HIT %:        100  MISS %:          0   MPKI: 0
PSCL4 PREFETCH  REQUESTED:          0  ISSUED:          0  USEFUL:          0  USELESS:          0
PSCL4 USEFUL LOAD PREFETCHES:          0 PREFETCH ISSUED TO LOWER LEVEL:          0  ACCURACY: -nan
PSCL4 TIMELY PREFETCHES:          0 LATE PREFETCHES: 0 DROPPED PREFETCHES: 0
PSCL4 PREFETCHES SAME FILL-ORIGIN LEVEL: 0 DIFFERENT FILL-ORIGIN LEVEL: 0

PSCL3 TOTAL     ACCESS:     183512  HIT:     183512  MISS:          0  HIT %:        100  MISS %:          0   MPKI: 0
PSCL3 LOAD TRANSLATION ACCESS:     106741  HIT:     106741  MISS:          0  HIT %:        100  MISS %:          0   MPKI: 0
PSCL3 TRANSLATION FROM L1D PREFETCHER ACCESS:      76771  HIT:      76771  MISS:          0  HIT %:        100  MISS %:          0   MPKI: 0
PSCL3 PREFETCH  REQUESTED:          0  ISSUED:          0  USEFUL:          0  USELESS:          0
PSCL3 USEFUL LOAD PREFETCHES:          0 PREFETCH ISSUED TO LOWER LEVEL:          0  ACCURACY: -nan
PSCL3 TIMELY PREFETCHES:          0 LATE PREFETCHES: 0 DROPPED PREFETCHES: 0
PSCL3 PREFETCHES SAME FILL-ORIGIN LEVEL: 0 DIFFERENT FILL-ORIGIN LEVEL: 0

PSCL2 TOTAL     ACCESS:     183496  HIT:     182632  MISS:        864  HIT %:    99.5291  MISS %:   0.470855   MPKI: 0.00432
PSCL2 LOAD TRANSLATION ACCESS:     106855  HIT:     105991  MISS:        864  HIT %:    99.1914  MISS %:   0.808572   MPKI: 0.00432
PSCL2 TRANSLATION FROM L1D PREFETCHER ACCESS:      76641  HIT:      76641  MISS:          0  HIT %:        100  MISS %:          0   MPKI: 0
PSCL2 PREFETCH  REQUESTED:          0  ISSUED:          0  USEFUL:          0  USELESS:          0
PSCL2 USEFUL LOAD PREFETCHES:          0 PREFETCH ISSUED TO LOWER LEVEL:          0  ACCURACY: -nan
PSCL2 TIMELY PREFETCHES:          0 LATE PREFETCHES: 0 DROPPED PREFETCHES: 0
PSCL2 PREFETCHES SAME FILL-ORIGIN LEVEL: 0 DIFFERENT FILL-ORIGIN LEVEL: 0

LLC TOTAL     ACCESS:    5142278  HIT:    1096753  MISS:    4045525  HIT %:    21.3282  MISS %:    78.6718   MPKI: 20.2276
LLC LOAD      ACCESS:    1282985  HIT:     577867  MISS:     705118  HIT %:    45.0408  MISS %:    54.9592   MPKI: 3.52559
LLC RFO       ACCESS:     151931  HIT:       9575  MISS:     142356  HIT %:     6.3022  MISS %:    93.6978   MPKI: 0.71178
LLC PREFETCH  ACCESS:    3153008  HIT:      11531  MISS:    3141477  HIT %:   0.365714  MISS %:    99.6343   MPKI: 15.7074
LLC WRITEBACK ACCESS:     521256  HIT:     496585  MISS:      24671  HIT %:     95.267  MISS %:    4.73299   MPKI: 0.123355
LLC LOAD TRANSLATION ACCESS:      24385  HIT:        733  MISS:      23652  HIT %:    3.00595  MISS %:    96.9941   MPKI: 0.11826
LLC TRANSLATION FROM L1D PREFETCHER ACCESS:       8713  HIT:        462  MISS:       8251  HIT %:    5.30242  MISS %:    94.6976   MPKI: 0.041255
LLC PREFETCH  REQUESTED:          0  ISSUED:          0  USEFUL:      10035  USELESS:   12695951
LLC USEFUL LOAD PREFETCHES:      10035 PREFETCH ISSUED TO LOWER LEVEL:   12685287  ACCURACY: 0.0791074
LLC TIMELY PREFETCHES:      10035 LATE PREFETCHES: 0 DROPPED PREFETCHES: 0
LLC PREFETCHES SAME FILL-ORIGIN LEVEL: 0 DIFFERENT FILL-ORIGIN LEVEL: 0
LLC AVERAGE MISS LATENCY: 1112.04 cycles
LLC RQ	ACCESS:    5846613	FORWARD:          0	MERGED:          0	TO_CACHE:    5846612
LLC WQ	ACCESS:    2092374	FORWARD:          1	MERGED:          0	TO_CACHE:    2092374
LLC PQ	ACCESS:   12732356	FORWARD:          0	MERGED:          0	TO_CACHE:   12732356

LLC Dense regions hint to LLC: 0

RAW hits: 18799
Loads Generated: 49181529
Loads sent to L1D: 49162730
Stores Generated: 5542573
Stores sent to L1D: 5542573
Major fault: 0 Minor fault: 27212
Allocated PAGES: 108848

CPU 1 cumulative IPC: 0.3284 instructions: 200000001 cycles: 609013741
ITLB TOTAL     ACCESS:   33345539  HIT:   33345539  MISS:          0  HIT %:        100  MISS %:          0   MPKI: 0
ITLB LOAD TRANSLATION ACCESS:   33345539  HIT:   33345539  MISS:          0  HIT %:        100  MISS %:          0   MPKI: 0
ITLB PREFETCH  REQUESTED:          0  ISSUED:          0  USEFUL:          0  USELESS:          0
ITLB USEFUL LOAD PREFETCHES:          0 PREFETCH ISSUED TO LOWER LEVEL:          0  ACCURACY: -nan
ITLB TIMELY PREFETCHES:          0 LATE PREFETCHES: 0 DROPPED PREFETCHES: 0
ITLB PREFETCHES SAME FILL-ORIGIN LEVEL: 0 DIFFERENT FILL-ORIGIN LEVEL: 0
ITLB AVERAGE MISS LATENCY: -nan cycles
ITLB RQ	ACCESS:   42703146	FORWARD:          0	MERGED:    8775581	TO_CACHE:   33927565

DTLB TOTAL     ACCESS:   34999540  HIT:   34809381  MISS:     190159  HIT %:    99.4567  MISS %:   0.543319   MPKI: 0.950795
DTLB LOAD TRANSLATION ACCESS:   34999540  HIT:   34809381  MISS:     190159  HIT %:    99.4567  MISS %:   0.543319   MPKI: 0.950795
DTLB PREFETCH  REQUESTED:          0  ISSUED:          0  USEFUL:          0  USELESS:          0
DTLB USEFUL LOAD PREFETCHES:          0 PREFETCH ISSUED TO LOWER LEVEL:          0  ACCURACY: -nan
DTLB TIMELY PREFETCHES:          0 LATE PREFETCHES: 0 DROPPED PREFETCHES: 0
DTLB PREFETCHES SAME FILL-ORIGIN LEVEL: 0 DIFFERENT FILL-ORIGIN LEVEL: 0
DTLB AVERAGE MISS LATENCY: 68.3175 cycles
DTLB RQ	ACCESS:   38303451	FORWARD:          0	MERGED:    2958081	TO_CACHE:   35345370

STLB TOTAL     ACCESS:   18070917  HIT:   17903235  MISS:     167682  HIT %:    99.0721  MISS %:   0.927911   MPKI: 0.83841
STLB LOAD TRANSLATION ACCESS:     190159  HIT:      82873  MISS:     107286  HIT %:    43.5809  MISS %:    56.4191   MPKI: 0.53643
STLB TRANSLATION FROM L1D PREFETCHER ACCESS:   17880758  HIT:   17820362  MISS:      60396  HIT %:    99.6622  MISS %:   0.337771   MPKI: 0.30198
STLB PREFETCH  REQUESTED:          0  ISSUED:          0  USEFUL:      60547  USELESS:        349
STLB USEFUL LOAD PREFETCHES:      60547 PREFETCH ISSUED TO LOWER LEVEL:          0  ACCURACY: inf
STLB TIMELY PREFETCHES:      60547 LATE PREFETCHES: 592 DROPPED PREFETCHES: 14911
STLB PREFETCHES SAME FILL-ORIGIN LEVEL: 0 DIFFERENT FILL-ORIGIN LEVEL: 0
STLB AVERAGE MISS LATENCY: 88.7608 cycles
STLB RQ	ACCESS:   78046304	FORWARD:          0	MERGED:   59764012	TO_CACHE:   18282292

STLB Hit, L1D data hit: 0
STLB Hit, L2C data hit: 0
STLB Hit, LLC data hit: 0
STLB Hit, LLC data miss: 0
STLB STLB hints to L2: 0
L1D TOTAL     ACCESS:   90879388  HIT:   85622618  MISS:    5256770  HIT %:    94.2157  MISS %:    5.78434   MPKI: 26.2838
L1D LOAD      ACCESS:   32189692  HIT:   28836090  MISS:    3353602  HIT %:    89.5818  MISS %:    10.4182   MPKI: 16.768
L1D RFO       ACCESS:    3631077  HIT:    3472711  MISS:     158366  HIT %:    95.6386  MISS %:    4.36141   MPKI: 0.79183
L1D PREFETCH  ACCESS:   55058619  HIT:   53313817  MISS:    1744802  HIT %:     96.831  MISS %:    3.16899   MPKI: 8.72401
L1D PREFETCH  REQUESTED:  169023867  ISSUED:  168541598  USEFUL:    1742687  USELESS:      26495
L1D USEFUL LOAD PREFETCHES:    1742687 PREFETCH ISSUED TO LOWER LEVEL:   19407139  ACCURACY: 8.97962
L1D TIMELY PREFETCHES:    1742687 LATE PREFETCHES: 11434 DROPPED PREFETCHES: 23475
L1D PREFETCHES SAME FILL-ORIGIN LEVEL: 1780610 DIFFERENT FILL-ORIGIN LEVEL: 17626529
L1D AVERAGE MISS LATENCY: 142.365 cycles
L1D RQ	ACCESS:   49810427	FORWARD:          0	MERGED:   17135725	TO_CACHE:   32674222
L1D WQ	ACCESS:    5641355	FORWARD:        480	MERGED:      12126	TO_CACHE:    5629229
L1D PQ	ACCESS:   90686215	FORWARD:          0	MERGED:   12830832	TO_CACHE:   77855383

L1D UNIQUE REGIONS ACCESSED: 0
L1D REGIONS CONFLICTS: 0
L1D Cross Page Prefetch Requests: 8444519
L1D Same Page Prefetch Requests: 97407543
L1D ROI Sum of L1D PQ occupancy: 999188258
L1D PREFETCHES PUSHED FROM L2C: 0
L1I TOTAL     ACCESS:   42056223  HIT:   42056208  MISS:         15  HIT %:        100  MISS %: 3.56665e-05   MPKI: 7.5e-05
L1I LOAD      ACCESS:   42056223  HIT:   42056208  MISS:         15  HIT %:        100  MISS %: 3.56665e-05   MPKI: 7.5e-05
L1I PREFETCH  REQUESTED:          0  ISSUED:          0  USEFUL:          0  USELESS:          0
L1I USEFUL LOAD PREFETCHES:          0 PREFETCH ISSUED TO LOWER LEVEL:          0  ACCURACY: -nan
L1I TIMELY PREFETCHES:          0 LATE PREFETCHES: 0 DROPPED PREFETCHES: 0
L1I PREFETCHES SAME FILL-ORIGIN LEVEL: 0 DIFFERENT FILL-ORIGIN LEVEL: 0
L1I AVERAGE MISS LATENCY: 270.067 cycles
L1I RQ	ACCESS:   66350518	FORWARD:          0	MERGED:   23647372	TO_CACHE:   42703146

BTB TOTAL     ACCESS:   42321395  HIT:   42321080  MISS:        315  HIT %:    99.9993  MISS %: 0.000744304   MPKI: 0.001575
BTB BRANCH_DIRECT_JUMP	ACCESS:       5431  HIT:       5387  MISS:         44
BTB BRANCH_INDIRECT	ACCESS:          2  HIT:          1  MISS:          1
BTB BRANCH_CONDITIONAL	ACCESS:   42315450  HIT:   42315351  MISS:         99
BTB BRANCH_DIRECT_CALL	ACCESS:        250  HIT:        208  MISS:         42
BTB BRANCH_INDIRECT_CALL	ACCESS:          6  HIT:          3  MISS:          3
BTB BRANCH_RETURN	ACCESS:        256  HIT:        130  MISS:        126
BTB BRANCH_OTHER ACCESS:          0  HIT:          0  MISS:          0

L2C TOTAL     ACCESS:   20475450  HIT:   15800746  MISS:    4674704  HIT %:    77.1692  MISS %:    22.8308   MPKI: 23.3735
L2C LOAD      ACCESS:    3342756  HIT:    1982971  MISS:    1359785  HIT %:    59.3214  MISS %:    40.6786   MPKI: 6.79892
L2C DATA LOAD MPKI: 6.79885
L2C INSTRUCTION LOAD MPKI: 7.5e-05
L2C RFO       ACCESS:     158366  HIT:       6089  MISS:     152277  HIT %:    3.84489  MISS %:    96.1551   MPKI: 0.761385
L2C PREFETCH  ACCESS:   16267802  HIT:   13199333  MISS:    3068469  HIT %:    81.1378  MISS %:    18.8622   MPKI: 15.3423
L2C DATA PREFETCH MPKI: 15.3423
L2C INSTRUCTION PREFETCH MPKI: 0
L2C WRITEBACK ACCESS:     523030  HIT:     462018  MISS:      61012  HIT %:    88.3349  MISS %:    11.6651   MPKI: 0.30506
L2C LOAD TRANSLATION ACCESS:     107473  HIT:      83102  MISS:      24371  HIT %:    77.3236  MISS %:    22.6764   MPKI: 0.121855
L2C TRANSLATION FROM L1D PREFETCHER ACCESS:      76023  HIT:      67233  MISS:       8790  HIT %:    88.4377  MISS %:    11.5623   MPKI: 0.04395
L2C PREFETCH  REQUESTED:          0  ISSUED:          0  USEFUL:     642931  USELESS:    2468069
L2C USEFUL LOAD PREFETCHES:     642931 PREFETCH ISSUED TO LOWER LEVEL:    3195373  ACCURACY: 20.1207
L2C TIMELY PREFETCHES:     642931 LATE PREFETCHES: 93423 DROPPED PREFETCHES: 0
L2C PREFETCHES SAME FILL-ORIGIN LEVEL: 2111853 DIFFERENT FILL-ORIGIN LEVEL: 0
L2C AVERAGE MISS LATENCY: 264.562 cycles
L2C RQ	ACCESS:    3706880	FORWARD:          0	MERGED:          0	TO_CACHE:    3706880
L2C WQ	ACCESS:     528959	FORWARD:          0	MERGED:          0	TO_CACHE:     528959
L2C PQ	ACCESS:   19407139	FORWARD:          0	MERGED:      16639	TO_CACHE:   19390500

L2C Instructions Evicting Data 15
L2C Translations Evicting Data 32702
L2C Data Evicting Data 4594724
L2C Instructions Evicting Instructions 0
L2C Translations Evicting Instructions 2
L2C Data Evicting Instructions 13
L2C Instructions Evicting Translations 0
L2C Translations Evicting Translations 550
L2C Data Evicting Translations 32473
L2C Dense regions hint from L2: 0
PSCL5 TOTAL     ACCESS:     182629  HIT:     182629  MISS:          0  HIT %:        100  MISS %:          0   MPKI: 0
PSCL5 LOAD TRANSLATION ACCESS:     106742  HIT:     106742  MISS:          0  HIT %:        100  MISS %:          0   MPKI: 0
PSCL5 TRANSLATION FROM L1D PREFETCHER ACCESS:      75887  HIT:      75887  MISS:          0  HIT %:        100  MISS %:          0   MPKI: 0
PSCL5 PREFETCH  REQUESTED:          0  ISSUED:          0  USEFUL:          0  USELESS:          0
PSCL5 USEFUL LOAD PREFETCHES:          0 PREFETCH ISSUED TO LOWER LEVEL:          0  ACCURACY: -nan
PSCL5 TIMELY PREFETCHES:          0 LATE PREFETCHES: 0 DROPPED PREFETCHES: 0
PSCL5 PREFETCHES SAME FILL-ORIGIN LEVEL: 0 DIFFERENT FILL-ORIGIN LEVEL: 0

PSCL4 TOTAL     ACCESS:     182629  HIT:     182629  MISS:          0  HIT %:        100  MISS %:          0   MPKI: 0
PSCL4 LOAD TRANSLATION ACCESS:     106742  HIT:     106742  MISS:          0  HIT %:        100  MISS %:          0   MPKI: 0
PSCL4 TRANSLATION FROM L1D PREFETCHER ACCESS:      75887  HIT:      75887  MISS:          0  HIT %:        100  MISS %:          0   MPKI: 0
PSCL4 PREFETCH  REQUESTED:          0  ISSUED:          0  USEFUL:          0  USELESS:          0
PSCL4 USEFUL LOAD PREFETCHES:          0 PREFETCH ISSUED TO LOWER LEVEL:          0  ACCURACY: -nan
PSCL4 TIMELY PREFETCHES:          0 LATE PREFETCHES: 0 DROPPED PREFETCHES: 0
PSCL4 PREFETCHES SAME FILL-ORIGIN LEVEL: 0 DIFFERENT FILL-ORIGIN LEVEL: 0

PSCL3 TOTAL     ACCESS:     182629  HIT:     182629  MISS:          0  HIT %:        100  MISS %:          0   MPKI: 0
PSCL3 LOAD TRANSLATION ACCESS:     106742  HIT:     106742  MISS:          0  HIT %:        100  MISS %:          0   MPKI: 0
PSCL3 TRANSLATION FROM L1D PREFETCHER ACCESS:      75887  HIT:      75887  MISS:          0  HIT %:        100  MISS %:          0   MPKI: 0
PSCL3 PREFETCH  REQUESTED:          0  ISSUED:          0  USEFUL:          0  USELESS:          0
PSCL3 USEFUL LOAD PREFETCHES:          0 PREFETCH ISSUED TO LOWER LEVEL:          0  ACCURACY: -nan
PSCL3 TIMELY PREFETCHES:          0 LATE PREFETCHES: 0 DROPPED PREFETCHES: 0
PSCL3 PREFETCHES SAME FILL-ORIGIN LEVEL: 0 DIFFERENT FILL-ORIGIN LEVEL: 0

PSCL2 TOTAL     ACCESS:     182611  HIT:     181747  MISS:        864  HIT %:    99.5269  MISS %:   0.473137   MPKI: 0.00432
PSCL2 LOAD TRANSLATION ACCESS:     106868  HIT:     106004  MISS:        864  HIT %:    99.1915  MISS %:   0.808474   MPKI: 0.00432
PSCL2 TRANSLATION FROM L1D PREFETCHER ACCESS:      75743  HIT:      75743  MISS:          0  HIT %:        100  MISS %:          0   MPKI: 0
PSCL2 PREFETCH  REQUESTED:          0  ISSUED:          0  USEFUL:          0  USELESS:          0
PSCL2 USEFUL LOAD PREFETCHES:          0 PREFETCH ISSUED TO LOWER LEVEL:          0  ACCURACY: -nan
PSCL2 TIMELY PREFETCHES:          0 LATE PREFETCHES: 0 DROPPED PREFETCHES: 0
PSCL2 PREFETCHES SAME FILL-ORIGIN LEVEL: 0 DIFFERENT FILL-ORIGIN LEVEL: 0

LLC TOTAL     ACCESS:    5134985  HIT:    1091395  MISS:    4043590  HIT %:    21.2541  MISS %:    78.7459   MPKI: 20.2179
LLC LOAD      ACCESS:    1272425  HIT:     572769  MISS:     699656  HIT %:     45.014  MISS %:     54.986   MPKI: 3.49828
LLC RFO       ACCESS:     152277  HIT:       9954  MISS:     142323  HIT %:    6.53677  MISS %:    93.4632   MPKI: 0.711615
LLC PREFETCH  ACCESS:    3155829  HIT:      11876  MISS:    3143953  HIT %:    0.37632  MISS %:    99.6237   MPKI: 15.7198
LLC WRITEBACK ACCESS:     521293  HIT:     495338  MISS:      25955  HIT %:     95.021  MISS %:    4.97897   MPKI: 0.129775
LLC LOAD TRANSLATION ACCESS:      24371  HIT:        872  MISS:      23499  HIT %:    3.57802  MISS %:     96.422   MPKI: 0.117495
LLC TRANSLATION FROM L1D PREFETCHER ACCESS:       8790  HIT:        586  MISS:       8204  HIT %:    6.66667  MISS %:    93.3333   MPKI: 0.04102
LLC PREFETCH  REQUESTED:          0  ISSUED:          0  USEFUL:      10035  USELESS:   12695951
LLC USEFUL LOAD PREFETCHES:      10035 PREFETCH ISSUED TO LOWER LEVEL:   12685287  ACCURACY: 0.0791074
LLC TIMELY PREFETCHES:      10035 LATE PREFETCHES: 0 DROPPED PREFETCHES: 0
LLC PREFETCHES SAME FILL-ORIGIN LEVEL: 0 DIFFERENT FILL-ORIGIN LEVEL: 0
LLC AVERAGE MISS LATENCY: 1112.57 cycles
LLC RQ	ACCESS:    5846613	FORWARD:          0	MERGED:          0	TO_CACHE:    5846612
LLC WQ	ACCESS:    2092374	FORWARD:          1	MERGED:          0	TO_CACHE:    2092374
LLC PQ	ACCESS:   12732356	FORWARD:          0	MERGED:          0	TO_CACHE:   12732356

LLC Dense regions hint to LLC: 0

RAW hits: 18776
Loads Generated: 49181539
Loads sent to L1D: 49162760
Stores Generated: 5542573
Stores sent to L1D: 5542573
Major fault: 0 Minor fault: 27212
Allocated PAGES: 108848

CPU 2 cumulative IPC: 0.32718 instructions: 200000001 cycles: 611283759
ITLB TOTAL     ACCESS:   33368109  HIT:   33368109  MISS:          0  HIT %:        100  MISS %:          0   MPKI: 0
ITLB LOAD TRANSLATION ACCESS:   33368109  HIT:   33368109  MISS:          0  HIT %:        100  MISS %:          0   MPKI: 0
ITLB PREFETCH  REQUESTED:          0  ISSUED:          0  USEFUL:          0  USELESS:          0
ITLB USEFUL LOAD PREFETCHES:          0 PREFETCH ISSUED TO LOWER LEVEL:          0  ACCURACY: -nan
ITLB TIMELY PREFETCHES:          0 LATE PREFETCHES: 0 DROPPED PREFETCHES: 0
ITLB PREFETCHES SAME FILL-ORIGIN LEVEL: 0 DIFFERENT FILL-ORIGIN LEVEL: 0
ITLB AVERAGE MISS LATENCY: -nan cycles
ITLB RQ	ACCESS:   42353327	FORWARD:          0	MERGED:    8710644	TO_CACHE:   33642683

DTLB TOTAL     ACCESS:   34987399  HIT:   34797238  MISS:     190161  HIT %:    99.4565  MISS %:   0.543513   MPKI: 0.950805
DTLB LOAD TRANSLATION ACCESS:   34987399  HIT:   34797238  MISS:     190161  HIT %:    99.4565  MISS %:   0.543513   MPKI: 0.950805
DTLB PREFETCH  REQUESTED:          0  ISSUED:          0  USEFUL:          0  USELESS:          0
DTLB USEFUL LOAD PREFETCHES:          0 PREFETCH ISSUED TO LOWER LEVEL:          0  ACCURACY: -nan
DTLB TIMELY PREFETCHES:          0 LATE PREFETCHES: 0 DROPPED PREFETCHES: 0
DTLB PREFETCHES SAME FILL-ORIGIN LEVEL: 0 DIFFERENT FILL-ORIGIN LEVEL: 0
DTLB AVERAGE MISS LATENCY: 70.6521 cycles
DTLB RQ	ACCESS:   38057018	FORWARD:          0	MERGED:    2942146	TO_CACHE:   35114872

STLB TOTAL     ACCESS:   17960737  HIT:   17793098  MISS:     167639  HIT %:    99.0666  MISS %:   0.933364   MPKI: 0.838195
STLB LOAD TRANSLATION ACCESS:     190161  HIT:      82882  MISS:     107279  HIT %:    43.5852  MISS %:    56.4148   MPKI: 0.536395
STLB TRANSLATION FROM L1D PREFETCHER ACCESS:   17770576  HIT:   17710216  MISS:      60360  HIT %:    99.6603  MISS %:   0.339663   MPKI: 0.3018
STLB PREFETCH  REQUESTED:          0  ISSUED:          0  USEFUL:      60242  USELESS:        322
STLB USEFUL LOAD PREFETCHES:      60242 PREFETCH ISSUED TO LOWER LEVEL:          0  ACCURACY: inf
STLB TIMELY PREFETCHES:      60242 LATE PREFETCHES: 589 DROPPED PREFETCHES: 14743
STLB PREFETCHES SAME FILL-ORIGIN LEVEL: 0 DIFFERENT FILL-ORIGIN LEVEL: 0
STLB AVERAGE MISS LATENCY: 91.3954 cycles
STLB RQ	ACCESS:   76753199	FORWARD:          0	MERGED:   58697355	TO_CACHE:   18055844

STLB Hit, L1D data hit: 0
STLB Hit, L2C data hit: 0
STLB Hit, LLC data hit: 0
STLB Hit, LLC data miss: 0
STLB STLB hints to L2: 0
L1D TOTAL     ACCESS:   89389432  HIT:   84132658  MISS:    5256774  HIT %:    94.1192  MISS %:    5.88076   MPKI: 26.2839
L1D LOAD      ACCESS:   32101967  HIT:   28715354  MISS:    3386613  HIT %:    89.4505  MISS %:    10.5495   MPKI: 16.9331
L1D RFO       ACCESS:    3614554  HIT:    3456188  MISS:     158366  HIT %:    95.6187  MISS %:    4.38134   MPKI: 0.79183
L1D PREFETCH  ACCESS:   53672911  HIT:   51961116  MISS:    1711795  HIT %:    96.8107  MISS %:    3.18931   MPKI: 8.55897
L1D PREFETCH  REQUESTED:  165634866  ISSUED:  165153684  USEFUL:    1690260  USELESS:      26676
L1D USEFUL LOAD PREFETCHES:    1690260 PREFETCH ISSUED TO LOWER LEVEL:   19905876  ACCURACY: 8.49126
L1D TIMELY PREFETCHES:    1690260 LATE PREFETCHES: 14889 DROPPED PREFETCHES: 23872
L1D PREFETCHES SAME FILL-ORIGIN LEVEL: 1731803 DIFFERENT FILL-ORIGIN LEVEL: 18174073
L1D AVERAGE MISS LATENCY: 141.744 cycles
L1D RQ	ACCESS:   49481421	FORWARD:          0	MERGED:   16954293	TO_CACHE:   32526632
L1D WQ	ACCESS:    5542575	FORWARD:        496	MERGED:      12189	TO_CACHE:    5530386
L1D PQ	ACCESS:   88590957	FORWARD:          0	MERGED:   12028230	TO_CACHE:   76562727

L1D UNIQUE REGIONS ACCESSED: 0
L1D REGIONS CONFLICTS: 0
L1D Cross Page Prefetch Requests: 8195324
L1D Same Page Prefetch Requests: 95530344
L1D ROI Sum of L1D PQ occupancy: 984252113
L1D PREFETCHES PUSHED FROM L2C: 0
L1I TOTAL     ACCESS:   42078751  HIT:   42078736  MISS:         15  HIT %:        100  MISS %: 3.56474e-05   MPKI: 7.5e-05
L1I LOAD      ACCESS:   42078751  HIT:   42078736  MISS:         15  HIT %:        100  MISS %: 3.56474e-05   MPKI: 7.5e-05
L1I PREFETCH  REQUESTED:          0  ISSUED:          0  USEFUL:          0  USELESS:          0
L1I USEFUL LOAD PREFETCHES:          0 PREFETCH ISSUED TO LOWER LEVEL:          0  ACCURACY: -nan
L1I TIMELY PREFETCHES:          0 LATE PREFETCHES: 0 DROPPED PREFETCHES: 0
L1I PREFETCHES SAME FILL-ORIGIN LEVEL: 0 DIFFERENT FILL-ORIGIN LEVEL: 0
L1I AVERAGE MISS LATENCY: 273.867 cycles
L1I RQ	ACCESS:   65715899	FORWARD:          0	MERGED:   23362572	TO_CACHE:   42353327

BTB TOTAL     ACCESS:   42321380  HIT:   42321062  MISS:        318  HIT %:    99.9992  MISS %: 0.000751393   MPKI: 0.00159
BTB BRANCH_DIRECT_JUMP	ACCESS:       5431  HIT:       5387  MISS:         44
BTB BRANCH_INDIRECT	ACCESS:          2  HIT:          1  MISS:          1
BTB BRANCH_CONDITIONAL	ACCESS:   42315435  HIT:   42315333  MISS:        102
BTB BRANCH_DIRECT_CALL	ACCESS:        250  HIT:        208  MISS:         42
BTB BRANCH_INDIRECT_CALL	ACCESS:          6  HIT:          3  MISS:          3
BTB BRANCH_RETURN	ACCESS:        256  HIT:        130  MISS:        126
BTB BRANCH_OTHER ACCESS:          0  HIT:          0  MISS:          0

L2C TOTAL     ACCESS:   20755022  HIT:   16078343  MISS:    4676679  HIT %:    77.4672  MISS %:    22.5328   MPKI: 23.3834
L2C LOAD      ACCESS:    3372137  HIT:    2007268  MISS:    1364869  HIT %:    59.5251  MISS %:    40.4749   MPKI: 6.82434
L2C DATA LOAD MPKI: 6.82427
L2C INSTRUCTION LOAD MPKI: 7.5e-05
L2C RFO       ACCESS:     158366  HIT:       6508  MISS:     151858  HIT %:    4.10947  MISS %:    95.8905   MPKI: 0.75929
L2C PREFETCH  ACCESS:   16518198  HIT:   13456838  MISS:    3061360  HIT %:    81.4667  MISS %:    18.5333   MPKI: 15.3068
L2C DATA PREFETCH MPKI: 15.3068
L2C INSTRUCTION PREFETCH MPKI: 0
L2C WRITEBACK ACCESS:     523028  HIT:     457602  MISS:      65426  HIT %:    87.4909  MISS %:    12.5091   MPKI: 0.32713
L2C LOAD TRANSLATION ACCESS:     107480  HIT:      83091  MISS:      24389  HIT %:    77.3083  MISS %:    22.6917   MPKI: 0.121945
L2C TRANSLATION FROM L1D PREFETCHER ACCESS:      75813  HIT:      67036  MISS:       8777  HIT %:    88.4228  MISS %:    11.5772   MPKI: 0.043885
L2C PREFETCH  REQUESTED:          0  ISSUED:          0  USEFUL:     661987  USELESS:    2423454
L2C USEFUL LOAD PREFETCHES:     661987 PREFETCH ISSUED TO LOWER LEVEL:    3177582  ACCURACY: 20.833
L2C TIMELY PREFETCHES:     661987 LATE PREFETCHES: 101971 DROPPED PREFETCHES: 0
L2C PREFETCHES SAME FILL-ORIGIN LEVEL: 2149037 DIFFERENT FILL-ORIGIN LEVEL: 0
L2C AVERAGE MISS LATENCY: 267.812 cycles
L2C RQ	ACCESS:    3728419	FORWARD:          0	MERGED:          0	TO_CACHE:    3728419
L2C WQ	ACCESS:     523028	FORWARD:          0	MERGED:          0	TO_CACHE:     523028
L2C PQ	ACCESS:   19905876	FORWARD:          0	MERGED:      19083	TO_CACHE:   19886793

L2C Instructions Evicting Data 14
L2C Translations Evicting Data 32631
L2C Data Evicting Data 4565506
L2C Instructions Evicting Instructions 0
L2C Translations Evicting Instructions 0
L2C Data Evicting Instructions 15
L2C Instructions Evicting Translations 1
L2C Translations Evicting Translations 574
L2C Data Evicting Translations 32470
L2C Dense regions hint from L2: 0
PSCL5 TOTAL     ACCESS:     182416  HIT:     182416  MISS:          0  HIT %:        100  MISS %:          0   MPKI: 0
PSCL5 LOAD TRANSLATION ACCESS:     106737  HIT:     106737  MISS:          0  HIT %:        100  MISS %:          0   MPKI: 0
PSCL5 TRANSLATION FROM L1D PREFETCHER ACCESS:      75679  HIT:      75679  MISS:          0  HIT %:        100  MISS %:          0   MPKI: 0
PSCL5 PREFETCH  REQUESTED:          0  ISSUED:          0  USEFUL:          0  USELESS:          0
PSCL5 USEFUL LOAD PREFETCHES:          0 PREFETCH ISSUED TO LOWER LEVEL:          0  ACCURACY: -nan
PSCL5 TIMELY PREFETCHES:          0 LATE PREFETCHES: 0 DROPPED PREFETCHES: 0
PSCL5 PREFETCHES SAME FILL-ORIGIN LEVEL: 0 DIFFERENT FILL-ORIGIN LEVEL: 0

PSCL4 TOTAL     ACCESS:     182416  HIT:     182416  MISS:          0  HIT %:        100  MISS %:          0   MPKI: 0
PSCL4 LOAD TRANSLATION ACCESS:     106737  HIT:     106737  MISS:          0  HIT %:        100  MISS %:          0   MPKI: 0
PSCL4 TRANSLATION FROM L1D PREFETCHER ACCESS:      75679  HIT:      75679  MISS:          0  HIT %:        100  MISS %:          0   MPKI: 0
PSCL4 PREFETCH  REQUESTED:          0  ISSUED:          0  USEFUL:          0  USELESS:          0
PSCL4 USEFUL LOAD PREFETCHES:          0 PREFETCH ISSUED TO LOWER LEVEL:          0  ACCURACY: -nan
PSCL4 TIMELY PREFETCHES:          0 LATE PREFETCHES: 0 DROPPED PREFETCHES: 0
PSCL4 PREFETCHES SAME FILL-ORIGIN LEVEL: 0 DIFFERENT FILL-ORIGIN LEVEL: 0

PSCL3 TOTAL     ACCESS:     182416  HIT:     182416  MISS:          0  HIT %:        100  MISS %:          0   MPKI: 0
PSCL3 LOAD TRANSLATION ACCESS:     106737  HIT:     106737  MISS:          0  HIT %:        100  MISS %:          0   MPKI: 0
PSCL3 TRANSLATION FROM L1D PREFETCHER ACCESS:      75679  HIT:      75679  MISS:          0  HIT %:        100  MISS %:          0   MPKI: 0
PSCL3 PREFETCH  REQUESTED:          0  ISSUED:          0  USEFUL:          0  USELESS:          0
PSCL3 USEFUL LOAD PREFETCHES:          0 PREFETCH ISSUED TO LOWER LEVEL:          0  ACCURACY: -nan
PSCL3 TIMELY PREFETCHES:          0 LATE PREFETCHES: 0 DROPPED PREFETCHES: 0
PSCL3 PREFETCHES SAME FILL-ORIGIN LEVEL: 0 DIFFERENT FILL-ORIGIN LEVEL: 0

PSCL2 TOTAL     ACCESS:     182394  HIT:     181530  MISS:        864  HIT %:    99.5263  MISS %:     0.4737   MPKI: 0.00432
PSCL2 LOAD TRANSLATION ACCESS:     106851  HIT:     105987  MISS:        864  HIT %:    99.1914  MISS %:   0.808603   MPKI: 0.00432
PSCL2 TRANSLATION FROM L1D PREFETCHER ACCESS:      75543  HIT:      75543  MISS:          0  HIT %:        100  MISS %:          0   MPKI: 0
PSCL2 PREFETCH  REQUESTED:          0  ISSUED:          0  USEFUL:          0  USELESS:          0
PSCL2 USEFUL LOAD PREFETCHES:          0 PREFETCH ISSUED TO LOWER LEVEL:          0  ACCURACY: -nan
PSCL2 TIMELY PREFETCHES:          0 LATE PREFETCHES: 0 DROPPED PREFETCHES: 0
PSCL2 PREFETCHES SAME FILL-ORIGIN LEVEL: 0 DIFFERENT FILL-ORIGIN LEVEL: 0

LLC TOTAL     ACCESS:    5132523  HIT:    1086188  MISS:    4046335  HIT %:    21.1628  MISS %:    78.8372   MPKI: 20.2317
LLC LOAD      ACCESS:    1267373  HIT:     567453  MISS:     699920  HIT %:     44.774  MISS %:     55.226   MPKI: 3.4996
LLC RFO       ACCESS:     151858  HIT:       9644  MISS:     142214  HIT %:    6.35067  MISS %:    93.6493   MPKI: 0.71107
LLC PREFETCH  ACCESS:    3158855  HIT:      11369  MISS:    3147486  HIT %:   0.359909  MISS %:    99.6401   MPKI: 15.7374
LLC WRITEBACK ACCESS:     521271  HIT:     496360  MISS:      24911  HIT %:    95.2211  MISS %:     4.7789   MPKI: 0.124555
LLC LOAD TRANSLATION ACCESS:      24389  HIT:        818  MISS:      23571  HIT %:    3.35397  MISS %:     96.646   MPKI: 0.117855
LLC TRANSLATION FROM L1D PREFETCHER ACCESS:       8777  HIT:        544  MISS:       8233  HIT %:    6.19802  MISS %:     93.802   MPKI: 0.041165
LLC PREFETCH  REQUESTED:          0  ISSUED:          0  USEFUL:      10035  USELESS:   12695951
LLC USEFUL LOAD PREFETCHES:      10035 PREFETCH ISSUED TO LOWER LEVEL:   12685287  ACCURACY: 0.0791074
LLC TIMELY PREFETCHES:      10035 LATE PREFETCHES: 0 DROPPED PREFETCHES: 0
LLC PREFETCHES SAME FILL-ORIGIN LEVEL: 0 DIFFERENT FILL-ORIGIN LEVEL: 0
LLC AVERAGE MISS LATENCY: 1111.82 cycles
LLC RQ	ACCESS:    5846613	FORWARD:          0	MERGED:          0	TO_CACHE:    5846612
LLC WQ	ACCESS:    2092374	FORWARD:          1	MERGED:          0	TO_CACHE:    2092374
LLC PQ	ACCESS:   12732356	FORWARD:          0	MERGED:          0	TO_CACHE:   12732356

LLC Dense regions hint to LLC: 0

RAW hits: 18986
Loads Generated: 49181541
Loads sent to L1D: 49162554
Stores Generated: 5542575
Stores sent to L1D: 5542575
Major fault: 0 Minor fault: 27212
Allocated PAGES: 108848

CPU 3 cumulative IPC: 0.328358 instructions: 200000000 cycles: 609091419
ITLB TOTAL     ACCESS:   33319854  HIT:   33319854  MISS:          0  HIT %:        100  MISS %:          0   MPKI: 0
ITLB LOAD TRANSLATION ACCESS:   33319854  HIT:   33319854  MISS:          0  HIT %:        100  MISS %:          0   MPKI: 0
ITLB PREFETCH  REQUESTED:          0  ISSUED:          0  USEFUL:          0  USELESS:          0
ITLB USEFUL LOAD PREFETCHES:          0 PREFETCH ISSUED TO LOWER LEVEL:          0  ACCURACY: -nan
ITLB TIMELY PREFETCHES:          0 LATE PREFETCHES: 0 DROPPED PREFETCHES: 0
ITLB PREFETCHES SAME FILL-ORIGIN LEVEL: 0 DIFFERENT FILL-ORIGIN LEVEL: 0
ITLB AVERAGE MISS LATENCY: -nan cycles
ITLB RQ	ACCESS:   42645673	FORWARD:          0	MERGED:    8766580	TO_CACHE:   33879093

DTLB TOTAL     ACCESS:   35008596  HIT:   34818436  MISS:     190160  HIT %:    99.4568  MISS %:   0.543181   MPKI: 0.9508
DTLB LOAD TRANSLATION ACCESS:   35008596  HIT:   34818436  MISS:     190160  HIT %:    99.4568  MISS %:   0.543181   MPKI: 0.9508
DTLB PREFETCH  REQUESTED:          0  ISSUED:          0  USEFUL:          0  USELESS:          0
DTLB USEFUL LOAD PREFETCHES:          0 PREFETCH ISSUED TO LOWER LEVEL:          0  ACCURACY: -nan
DTLB TIMELY PREFETCHES:          0 LATE PREFETCHES: 0 DROPPED PREFETCHES: 0
DTLB PREFETCHES SAME FILL-ORIGIN LEVEL: 0 DIFFERENT FILL-ORIGIN LEVEL: 0
DTLB AVERAGE MISS LATENCY: 68.5701 cycles
DTLB RQ	ACCESS:   38284669	FORWARD:          0	MERGED:    2955075	TO_CACHE:   35329594

STLB TOTAL     ACCESS:   17786618  HIT:   17618965  MISS:     167653  HIT %:    99.0574  MISS %:   0.942579   MPKI: 0.838265
STLB LOAD TRANSLATION ACCESS:     190160  HIT:      83360  MISS:     106800  HIT %:    43.8368  MISS %:    56.1632   MPKI: 0.534
STLB TRANSLATION FROM L1D PREFETCHER ACCESS:   17596458  HIT:   17535605  MISS:      60853  HIT %:    99.6542  MISS %:   0.345825   MPKI: 0.304265
STLB PREFETCH  REQUESTED:          0  ISSUED:          0  USEFUL:      60978  USELESS:        331
STLB USEFUL LOAD PREFETCHES:      60978 PREFETCH ISSUED TO LOWER LEVEL:          0  ACCURACY: inf
STLB TIMELY PREFETCHES:      60978 LATE PREFETCHES: 556 DROPPED PREFETCHES: 15206
STLB PREFETCHES SAME FILL-ORIGIN LEVEL: 0 DIFFERENT FILL-ORIGIN LEVEL: 0
STLB AVERAGE MISS LATENCY: 89.3919 cycles
STLB RQ	ACCESS:   78200922	FORWARD:          0	MERGED:   60219992	TO_CACHE:   17980930

STLB Hit, L1D data hit: 0
STLB Hit, L2C data hit: 0
STLB Hit, LLC data hit: 0
STLB Hit, LLC data miss: 0
STLB STLB hints to L2: 0
L1D TOTAL     ACCESS:   90859184  HIT:   85601747  MISS:    5257437  HIT %:    94.2136  MISS %:    5.78636   MPKI: 26.2872
L1D LOAD      ACCESS:   32281598  HIT:   28947630  MISS:    3333968  HIT %:    89.6722  MISS %:    10.3278   MPKI: 16.6698
L1D RFO       ACCESS:    3622516  HIT:    3464146  MISS:     158370  HIT %:    95.6282  MISS %:    4.37182   MPKI: 0.79185
L1D PREFETCH  ACCESS:   54955070  HIT:   53189971  MISS:    1765099  HIT %:    96.7881  MISS %:    3.21189   MPKI: 8.8255
L1D PREFETCH  REQUESTED:  169598670  ISSUED:  169104159  USEFUL:    1756929  USELESS:      27207
L1D USEFUL LOAD PREFETCHES:    1756929 PREFETCH ISSUED TO LOWER LEVEL:   19628333  ACCURACY: 8.95098
L1D TIMELY PREFETCHES:    1756929 LATE PREFETCHES: 12019 DROPPED PREFETCHES: 23840
L1D PREFETCHES SAME FILL-ORIGIN LEVEL: 1796149 DIFFERENT FILL-ORIGIN LEVEL: 17832184
L1D AVERAGE MISS LATENCY: 143.054 cycles
L1D RQ	ACCESS:   49783281	FORWARD:          0	MERGED:   17113754	TO_CACHE:   32669013
L1D WQ	ACCESS:    5627799	FORWARD:        514	MERGED:      12143	TO_CACHE:    5615656
L1D PQ	ACCESS:   91094120	FORWARD:          0	MERGED:   13084081	TO_CACHE:   78010039

L1D UNIQUE REGIONS ACCESSED: 0
L1D REGIONS CONFLICTS: 0
L1D Cross Page Prefetch Requests: 8518518
L1D Same Page Prefetch Requests: 97601153
L1D ROI Sum of L1D PQ occupancy: 1002509228
L1D PREFETCHES PUSHED FROM L2C: 0
L1I TOTAL     ACCESS:   42030478  HIT:   42030463  MISS:         15  HIT %:        100  MISS %: 3.56884e-05   MPKI: 7.5e-05
L1I LOAD      ACCESS:   42030478  HIT:   42030463  MISS:         15  HIT %:        100  MISS %: 3.56884e-05   MPKI: 7.5e-05
L1I PREFETCH  REQUESTED:          0  ISSUED:          0  USEFUL:          0  USELESS:          0
L1I USEFUL LOAD PREFETCHES:          0 PREFETCH ISSUED TO LOWER LEVEL:          0  ACCURACY: -nan
L1I TIMELY PREFETCHES:          0 LATE PREFETCHES: 0 DROPPED PREFETCHES: 0
L1I PREFETCHES SAME FILL-ORIGIN LEVEL: 0 DIFFERENT FILL-ORIGIN LEVEL: 0
L1I AVERAGE MISS LATENCY: 305.4 cycles
L1I RQ	ACCESS:   66280828	FORWARD:          0	MERGED:   23635155	TO_CACHE:   42645673

BTB TOTAL     ACCESS:   42321364  HIT:   42321045  MISS:        319  HIT %:    99.9992  MISS %: 0.000753756   MPKI: 0.001595
BTB BRANCH_DIRECT_JUMP	ACCESS:       5431  HIT:       5387  MISS:         44
BTB BRANCH_INDIRECT	ACCESS:          2  HIT:          1  MISS:          1
BTB BRANCH_CONDITIONAL	ACCESS:   42315419  HIT:   42315316  MISS:        103
BTB BRANCH_DIRECT_CALL	ACCESS:        250  HIT:        208  MISS:         42
BTB BRANCH_INDIRECT_CALL	ACCESS:          6  HIT:          3  MISS:          3
BTB BRANCH_RETURN	ACCESS:        256  HIT:        130  MISS:        126
BTB BRANCH_OTHER ACCESS:          0  HIT:          0  MISS:          0

L2C TOTAL     ACCESS:   20706657  HIT:   16022351  MISS:    4684306  HIT %:    77.3778  MISS %:    22.6222   MPKI: 23.4215
L2C LOAD      ACCESS:    3322646  HIT:    1984910  MISS:    1337736  HIT %:    59.7388  MISS %:    40.2612   MPKI: 6.68868
L2C DATA LOAD MPKI: 6.6886
L2C INSTRUCTION LOAD MPKI: 7.5e-05
L2C RFO       ACCESS:     158370  HIT:       6853  MISS:     151517  HIT %:    4.32721  MISS %:    95.6728   MPKI: 0.757585
L2C PREFETCH  ACCESS:   16518856  HIT:   13419147  MISS:    3099709  HIT %:    81.2353  MISS %:    18.7647   MPKI: 15.4985
L2C DATA PREFETCH MPKI: 15.4985
L2C INSTRUCTION PREFETCH MPKI: 0
L2C WRITEBACK ACCESS:     523030  HIT:     460727  MISS:      62303  HIT %:    88.0881  MISS %:    11.9119   MPKI: 0.311515
L2C LOAD TRANSLATION ACCESS:     107033  HIT:      82683  MISS:      24350  HIT %:      77.25  MISS %:      22.75   MPKI: 0.12175
L2C TRANSLATION FROM L1D PREFETCHER ACCESS:      76722  HIT:      68031  MISS:       8691  HIT %:    88.6721  MISS %:    11.3279   MPKI: 0.043455
L2C PREFETCH  REQUESTED:          0  ISSUED:          0  USEFUL:     644983  USELESS:    2492224
L2C USEFUL LOAD PREFETCHES:     644983 PREFETCH ISSUED TO LOWER LEVEL:    3206389  ACCURACY: 20.1156
L2C TIMELY PREFETCHES:     644983 LATE PREFETCHES: 78071 DROPPED PREFETCHES: 0
L2C PREFETCHES SAME FILL-ORIGIN LEVEL: 2112463 DIFFERENT FILL-ORIGIN LEVEL: 0
L2C AVERAGE MISS LATENCY: 266.35 cycles
L2C RQ	ACCESS:    3689709	FORWARD:          0	MERGED:          0	TO_CACHE:    3689709
L2C WQ	ACCESS:     528115	FORWARD:          0	MERGED:          0	TO_CACHE:     528115
L2C PQ	ACCESS:   19628333	FORWARD:          0	MERGED:      16054	TO_CACHE:   19612279

L2C Instructions Evicting Data 14
L2C Translations Evicting Data 32486
L2C Data Evicting Data 4600752
L2C Instructions Evicting Instructions 0
L2C Translations Evicting Instructions 0
L2C Data Evicting Instructions 15
L2C Instructions Evicting Translations 1
L2C Translations Evicting Translations 645
L2C Data Evicting Translations 32334
L2C Dense regions hint from L2: 0
PSCL5 TOTAL     ACCESS:     182897  HIT:     182897  MISS:          0  HIT %:        100  MISS %:          0   MPKI: 0
PSCL5 LOAD TRANSLATION ACCESS:     106302  HIT:     106302  MISS:          0  HIT %:        100  MISS %:          0   MPKI: 0
PSCL5 TRANSLATION FROM L1D PREFETCHER ACCESS:      76595  HIT:      76595  MISS:          0  HIT %:        100  MISS %:          0   MPKI: 0
PSCL5 PREFETCH  REQUESTED:          0  ISSUED:          0  USEFUL:          0  USELESS:          0
PSCL5 USEFUL LOAD PREFETCHES:          0 PREFETCH ISSUED TO LOWER LEVEL:          0  ACCURACY: -nan
PSCL5 TIMELY PREFETCHES:          0 LATE PREFETCHES: 0 DROPPED PREFETCHES: 0
PSCL5 PREFETCHES SAME FILL-ORIGIN LEVEL: 0 DIFFERENT FILL-ORIGIN LEVEL: 0

PSCL4 TOTAL     ACCESS:     182897  HIT:     182897  MISS:          0  HIT %:        100  MISS %:          0   MPKI: 0
PSCL4 LOAD TRANSLATION ACCESS:     106302  HIT:     106302  MISS:          0  HIT %:        100  MISS %:          0   MPKI: 0
PSCL4 TRANSLATION FROM L1D PREFETCHER ACCESS:      76595  HIT:      76595  MISS:          0  HIT %:        100  MISS %:          0   MPKI: 0
PSCL4 PREFETCH  REQUESTED:          0  ISSUED:          0  USEFUL:          0  USELESS:          0
PSCL4 USEFUL LOAD PREFETCHES:          0 PREFETCH ISSUED TO LOWER LEVEL:          0  ACCURACY: -nan
PSCL4 TIMELY PREFETCHES:          0 LATE PREFETCHES: 0 DROPPED PREFETCHES: 0
PSCL4 PREFETCHES SAME FILL-ORIGIN LEVEL: 0 DIFFERENT FILL-ORIGIN LEVEL: 0

PSCL3 TOTAL     ACCESS:     182897  HIT:     182897  MISS:          0  HIT %:        100  MISS %:          0   MPKI: 0
PSCL3 LOAD TRANSLATION ACCESS:     106302  HIT:     106302  MISS:          0  HIT %:        100  MISS %:          0   MPKI: 0
PSCL3 TRANSLATION FROM L1D PREFETCHER ACCESS:      76595  HIT:      76595  MISS:          0  HIT %:        100  MISS %:          0   MPKI: 0
PSCL3 PREFETCH  REQUESTED:          0  ISSUED:          0  USEFUL:          0  USELESS:          0
PSCL3 USEFUL LOAD PREFETCHES:          0 PREFETCH ISSUED TO LOWER LEVEL:          0  ACCURACY: -nan
PSCL3 TIMELY PREFETCHES:          0 LATE PREFETCHES: 0 DROPPED PREFETCHES: 0
PSCL3 PREFETCHES SAME FILL-ORIGIN LEVEL: 0 DIFFERENT FILL-ORIGIN LEVEL: 0

PSCL2 TOTAL     ACCESS:     182884  HIT:     182019  MISS:        865  HIT %:     99.527  MISS %:   0.472977   MPKI: 0.004325
PSCL2 LOAD TRANSLATION ACCESS:     106429  HIT:     105564  MISS:        865  HIT %:    99.1873  MISS %:   0.812748   MPKI: 0.004325
PSCL2 TRANSLATION FROM L1D PREFETCHER ACCESS:      76455  HIT:      76455  MISS:          0  HIT %:        100  MISS %:          0   MPKI: 0
PSCL2 PREFETCH  REQUESTED:          0  ISSUED:          0  USEFUL:          0  USELESS:          0
PSCL2 USEFUL LOAD PREFETCHES:          0 PREFETCH ISSUED TO LOWER LEVEL:          0  ACCURACY: -nan
PSCL2 TIMELY PREFETCHES:          0 LATE PREFETCHES: 0 DROPPED PREFETCHES: 0
PSCL2 PREFETCHES SAME FILL-ORIGIN LEVEL: 0 DIFFERENT FILL-ORIGIN LEVEL: 0

LLC TOTAL     ACCESS:    5143087  HIT:    1088638  MISS:    4054449  HIT %:     21.167  MISS %:     78.833   MPKI: 20.2722
LLC LOAD      ACCESS:    1268571  HIT:     571645  MISS:     696926  HIT %:    45.0621  MISS %:    54.9379   MPKI: 3.48463
LLC RFO       ACCESS:     151517  HIT:       9319  MISS:     142198  HIT %:    6.15046  MISS %:    93.8495   MPKI: 0.71099
LLC PREFETCH  ACCESS:    3168874  HIT:      11889  MISS:    3156985  HIT %:   0.375181  MISS %:    99.6248   MPKI: 15.7849
LLC WRITEBACK ACCESS:     521084  HIT:     494541  MISS:      26543  HIT %:    94.9062  MISS %:     5.0938   MPKI: 0.132715
LLC LOAD TRANSLATION ACCESS:      24350  HIT:        781  MISS:      23569  HIT %:    3.20739  MISS %:    96.7926   MPKI: 0.117845
LLC TRANSLATION FROM L1D PREFETCHER ACCESS:       8691  HIT:        463  MISS:       8228  HIT %:    5.32735  MISS %:    94.6726   MPKI: 0.04114
LLC PREFETCH  REQUESTED:          0  ISSUED:          0  USEFUL:      10035  USELESS:   12695951
LLC USEFUL LOAD PREFETCHES:      10035 PREFETCH ISSUED TO LOWER LEVEL:   12685287  ACCURACY: 0.0791074
LLC TIMELY PREFETCHES:      10035 LATE PREFETCHES: 0 DROPPED PREFETCHES: 0
LLC PREFETCHES SAME FILL-ORIGIN LEVEL: 0 DIFFERENT FILL-ORIGIN LEVEL: 0
LLC AVERAGE MISS LATENCY: 1109.59 cycles
LLC RQ	ACCESS:    5846613	FORWARD:          0	MERGED:          0	TO_CACHE:    5846612
LLC WQ	ACCESS:    2092374	FORWARD:          1	MERGED:          0	TO_CACHE:    2092374
LLC PQ	ACCESS:   12732356	FORWARD:          0	MERGED:          0	TO_CACHE:   12732356

LLC Dense regions hint to LLC: 0

RAW hits: 18823
Loads Generated: 49181541
Loads sent to L1D: 49162716
Stores Generated: 5542575
Stores sent to L1D: 5542575
Major fault: 0 Minor fault: 27212
Allocated PAGES: 108848

DRAM Statistics
 CHANNEL 0
 RQ ROW_BUFFER_HIT:    2074925  ROW_BUFFER_MISS:   14123140
 DBUS_CONGESTED:        365
 WQ ROW_BUFFER_HIT:     185554  ROW_BUFFER_MISS:    1842748  FULL:          0

 AVG_CONGESTED_CYCLE: 5
 All warmup complete: 5
Channel 0 Bank busy for read cycles: 0
Channel 0 Bank busy for write cycles: 0
Channel 0
Rank 0
0banks busy for read cycles: 19553964
0banks busy for write cycles: 336
1banks busy for read cycles: 32067048
1banks busy for write cycles: 390562
2banks busy for read cycles: 71227381
2banks busy for write cycles: 323826
3banks busy for read cycles: 101944060
3banks busy for write cycles: 319853
4banks busy for read cycles: 106353966
4banks busy for write cycles: 318052
5banks busy for read cycles: 88252425
5banks busy for write cycles: 325957
6banks busy for read cycles: 61418111
6banks busy for write cycles: 529723
7banks busy for read cycles: 38652450
7banks busy for write cycles: 5422608
8banks busy for read cycles: 35507390
8banks busy for write cycles: 50359803

CPU 0 Branch Prediction Accuracy: 85.7267% MPKI: 31.0332 Average ROB Occupancy at Mispredict: 8.55915
Branch types
NOT_BRANCH: 156516077 78.258%
BRANCH_DIRECT_JUMP: 5431 0.0027155%
BRANCH_INDIRECT: 2 1e-06%
BRANCH_CONDITIONAL: 43478297 21.7391%
BRANCH_DIRECT_CALL: 250 0.000125%
BRANCH_INDIRECT_CALL: 6 3e-06%
BRANCH_RETURN: 256 0.000128%
BRANCH_OTHER: 0 0%


CPU 1 Branch Prediction Accuracy: 85.9934% MPKI: 30.7269 Average ROB Occupancy at Mispredict: 8.55833
Branch types
NOT_BRANCH: 158641230 78.0626%
BRANCH_DIRECT_JUMP: 5491 0.00270196%
BRANCH_INDIRECT: 3 1.47621e-06%
BRANCH_CONDITIONAL: 44575925 21.9345%
BRANCH_DIRECT_CALL: 273 0.000134335%
BRANCH_INDIRECT_CALL: 9 4.42863e-06%
BRANCH_RETURN: 282 0.000138764%
BRANCH_OTHER: 0 0%


CPU 2 Branch Prediction Accuracy: 85.933% MPKI: 30.7878 Average ROB Occupancy at Mispredict: 8.55853
Branch types
NOT_BRANCH: 157472756 78.1137%
BRANCH_DIRECT_JUMP: 5431 0.00269402%
BRANCH_INDIRECT: 2 9.92091e-07%
BRANCH_CONDITIONAL: 44116032 21.8836%
BRANCH_DIRECT_CALL: 250 0.000124011%
BRANCH_INDIRECT_CALL: 6 2.97627e-06%
BRANCH_RETURN: 256 0.000126988%
BRANCH_OTHER: 0 0%


CPU 3 Branch Prediction Accuracy: 85.9966% MPKI: 30.7214 Average ROB Occupancy at Mispredict: 8.56086
Branch types
NOT_BRANCH: 158534916 78.0615%
BRANCH_DIRECT_JUMP: 5491 0.00270373%
BRANCH_INDIRECT: 3 1.47718e-06%
BRANCH_CONDITIONAL: 44548822 21.9355%
BRANCH_DIRECT_CALL: 273 0.000134423%
BRANCH_INDIRECT_CALL: 9 4.43154e-06%
BRANCH_RETURN: 282 0.000138855%
BRANCH_OTHER: 0 0%

DRAM PAGES: 1048576
Allocated PAGES: 108848
